15
Coordinates from ORCA-job inp E -307.732040284570
  C      -4.476171     -3.726329     -3.185020
  C      -3.470289     -2.704741     -2.648483
  C      -4.100872     -1.732837     -1.612328
  O      -3.106745     -1.022021     -1.098329
  O      -5.393260     -3.121704     -4.101515
  C      -6.389154     -4.038396     -4.521691
  H      -5.934223     -4.896645     -5.025787
  H      -6.986325     -4.376012     -3.669106
  H      -7.050185     -3.530185     -5.228874
  H      -3.929560     -4.512101     -3.719776
  H      -5.024001     -4.192647     -2.357587
  H      -2.646258     -3.264976     -2.183885
  H      -3.053288     -2.133834     -3.489686
  H      -4.901294     -1.201976     -2.151214
  H      -4.686720     -2.363017     -0.924456
15
Coordinates from ORCA-job inp E -307.742077818372
  C      -4.473177     -3.752526     -3.194863
  C      -3.481052     -2.719256     -2.649579
  C      -4.058571     -1.705613     -1.601887
  O      -3.111185     -0.920161     -1.066652
  O      -5.393763     -3.131307     -4.094220
  C      -6.392155     -4.034439     -4.533830
  H      -5.943477     -4.901483     -5.071890
  H      -7.001799     -4.410004     -3.680098
  H      -7.060774     -3.494995     -5.232819
  H      -3.928673     -4.563788     -3.739874
  H      -5.031841     -4.226852     -2.352356
  H      -2.644793     -3.269910     -2.171177
  H      -3.055743     -2.148223     -3.501989
  H      -4.913704     -1.179522     -2.156125
  H      -4.657638     -2.359340     -0.870377
15
Coordinates from ORCA-job inp E -307.743187794913
  C      -4.469481     -3.758972     -3.192115
  C      -3.485419     -2.729103     -2.649268
  C      -4.049412     -1.701796     -1.610563
  O      -3.135123     -0.879864     -1.091075
  O      -5.392979     -3.128887     -4.077809
  C      -6.388233     -4.021488     -4.533537
  H      -5.946506     -4.884836     -5.090608
  H      -7.000198     -4.425573     -3.689714
  H      -7.058606     -3.465743     -5.220479
  H      -3.934521     -4.581290     -3.735306
  H      -5.027966     -4.234482     -2.343655
  H      -2.646134     -3.269186     -2.155750
  H      -3.046879     -2.162682     -3.502528
  H      -4.934976     -1.201465     -2.169085
  H      -4.631914     -2.372053     -0.856246
15
Coordinates from ORCA-job inp E -307.743464423926
  C      -4.469469     -3.759329     -3.186917
  C      -3.485342     -2.735582     -2.648360
  C      -4.045086     -1.698962     -1.617815
  O      -3.153379     -0.854064     -1.119335
  O      -5.395970     -3.125575     -4.064342
  C      -6.385340     -4.011868     -4.534749
  H      -5.946003     -4.869066     -5.104154
  H      -6.997354     -4.439333     -3.701684
  H      -7.057611     -3.447550     -5.212352
  H      -3.945409     -4.589685     -3.727741
  H      -5.025076     -4.235288     -2.334968
  H      -2.646357     -3.269179     -2.145076
  H      -3.033322     -2.174837     -3.499600
  H      -4.954699     -1.225394     -2.173492
  H      -4.607928     -2.381709     -0.847151
15
Coordinates from ORCA-job inp E -307.743503509267
  C      -4.471928     -3.756943     -3.184172
  C      -3.484036     -2.736678     -2.648250
  C      -4.043917     -1.697021     -1.619038
  O      -3.156019     -0.847881     -1.129603
  O      -5.399373     -3.123529     -4.060418
  C      -6.384291     -4.010030     -4.536389
  H      -5.942875     -4.864106     -5.108337
  H      -6.995697     -4.445853     -3.707528
  H      -7.058071     -3.445730     -5.211885
  H      -3.953239     -4.590519     -3.724212
  H      -5.025678     -4.232461     -2.331062
  H      -2.646292     -3.270691     -2.143954
  H      -3.026277     -2.178106     -3.497753
  H      -4.961470     -1.233584     -2.170553
  H      -4.599184     -2.384289     -0.844581
15
Coordinates from ORCA-job inp E -307.743512830181
  C      -4.473790     -3.754939     -3.183021
  C      -3.482925     -2.736608     -2.648621
  C      -4.043667     -1.695863     -1.618824
  O      -3.155605     -0.846243     -1.132860
  O      -5.401344     -3.122114     -4.059554
  C      -6.383719     -4.009874     -4.537294
  H      -5.940242     -4.862889     -5.109011
  H      -6.994863     -4.448386     -3.709806
  H      -7.058461     -3.447168     -5.212933
  H      -3.958050     -4.590370     -3.722849
  H      -5.026627     -4.229564     -2.329153
  H      -2.646258     -3.272528     -2.145194
  H      -3.022493     -2.178521     -3.496806
  H      -4.964110     -1.236984     -2.167490
  H      -4.596190     -2.385372     -0.844319
15
Coordinates from ORCA-job inp E -307.743513750161
  C      -4.474136     -3.754498     -3.182922
  C      -3.482565     -2.736561     -2.648848
  C      -4.043723     -1.695713     -1.618612
  O      -3.155585     -0.845590     -1.133214
  O      -5.401557     -3.121667     -4.059660
  C      -6.383549     -4.009856     -4.537416
  H      -5.939463     -4.862938     -5.108643
  H      -6.994857     -4.448266     -3.709941
  H      -7.058422     -3.447789     -5.213504
  H      -3.959162     -4.590516     -3.722769
  H      -5.026896     -4.228471     -2.328650
  H      -2.646251     -3.273473     -2.145946
  H      -3.021790     -2.178178     -3.496612
  H      -4.964714     -1.238193     -2.166637
  H      -4.595676     -2.385713     -0.844363
15
Coordinates from ORCA-job inp E -307.743513946098
  C      -4.474167     -3.754388     -3.182950
  C      -3.482399     -2.736579     -2.648954
  C      -4.043743     -1.695798     -1.618509
  O      -3.155881     -0.844978     -1.133455
  O      -5.401477     -3.121477     -4.059811
  C      -6.383475     -4.009789     -4.537449
  H      -5.939188     -4.863077     -5.108276
  H      -6.995047     -4.447785     -3.709909
  H      -7.058231     -3.447986     -5.213915
  H      -3.959568     -4.590729     -3.722748
  H      -5.026992     -4.227842     -2.328388
  H      -2.646222     -3.274034     -2.146351
  H      -3.021681     -2.177826     -3.496504
  H      -4.965103     -1.239121     -2.166349
  H      -4.595171     -2.386013     -0.844170
