!OPT PBE D3BJ def2-TZVP CPCM(water)

*xyz -1 1
C     -4.024449   -1.884272    1.977299
C     -3.713738   -2.389538    0.646322
Cl    -7.501759   -3.990843    2.819254
C     -5.202263   -2.370508    2.674068
H     -3.380272   -1.150048    2.444154
C     -4.580368   -3.376409    0.019877
H     -2.836119   -2.024040    0.132896
C     -5.761082   -3.861088    0.723355
H     -4.349350   -3.750623   -0.967100
C     -6.084993   -3.361893    2.060997
H     -6.403213   -4.593777    0.256533
O     -5.420624   -1.902456    3.814002
*
