12
Coordinates from ORCA-job inp E -766.171323482448
  C      -4.024449     -1.884272      1.977299
  C      -3.713738     -2.389538      0.646322
  Cl     -7.501759     -3.990843      2.819254
  C      -5.202263     -2.370508      2.674068
  H      -3.380272     -1.150048      2.444154
  C      -4.580368     -3.376409      0.019877
  H      -2.836119     -2.024040      0.132896
  C      -5.761082     -3.861088      0.723355
  H      -4.349350     -3.750623     -0.967100
  C      -6.084993     -3.361893      2.060997
  H      -6.403213     -4.593777      0.256533
  O      -5.420624     -1.902456      3.814002
12
Coordinates from ORCA-job inp E -766.188269250660
  C      -4.042891     -1.914364      1.947648
  C      -3.747188     -2.406731      0.659419
  Cl     -7.463653     -3.971033      2.802326
  C      -5.202983     -2.368944      2.678854
  H      -3.390515     -1.175737      2.410312
  C      -4.586763     -3.365880      0.047708
  H      -2.862252     -2.041378      0.135622
  C      -5.728972     -3.831784      0.733216
  H      -4.356953     -3.745786     -0.946965
  C      -6.043835     -3.350564      2.026447
  H      -6.378077     -4.571389      0.263655
  O      -5.454146     -1.911906      3.843414
12
Coordinates from ORCA-job inp E -766.190978341116
  C      -4.056814     -1.933740      1.932104
  C      -3.763114     -2.416276      0.664730
  Cl     -7.439991     -3.952690      2.809603
  C      -5.204543     -2.365108      2.686048
  H      -3.403655     -1.192280      2.399315
  C      -4.586617     -3.363567      0.050265
  H      -2.874869     -2.048706      0.141920
  C      -5.712137     -3.819127      0.732481
  H      -4.357475     -3.745122     -0.946602
  C      -6.015136     -3.342369      2.002190
  H      -6.367832     -4.560563      0.268423
  O      -5.476047     -1.915946      3.861179
12
Coordinates from ORCA-job inp E -766.191258886957
  C      -4.058707     -1.935063      1.932788
  C      -3.761599     -2.416209      0.662473
  Cl     -7.440691     -3.948134      2.817893
  C      -5.205067     -2.362977      2.691591
  H      -3.407549     -1.192884      2.403883
  C      -4.583736     -3.365978      0.042114
  H      -2.872639     -2.046426      0.142368
  C      -5.712517     -3.821802      0.728692
  H      -4.354628     -3.747118     -0.954554
  C      -6.010899     -3.341205      1.999823
  H      -6.371314     -4.562980      0.268726
  O      -5.478884     -1.914718      3.865862
12
Coordinates from ORCA-job inp E -766.191353178512
  C      -4.059929     -1.935777      1.933112
  C      -3.760677     -2.416397      0.661358
  Cl     -7.441981     -3.947567      2.822781
  C      -5.205796     -2.359951      2.695477
  H      -3.410362     -1.193545      2.407302
  C      -4.581771     -3.367385      0.036384
  H      -2.871337     -2.045148      0.144096
  C      -5.713287     -3.823668      0.725795
  H      -4.352824     -3.748299     -0.959506
  C      -6.006875     -3.339570      1.996734
  H      -6.374639     -4.564511      0.270619
  O      -5.478752     -1.913678      3.867505
12
Coordinates from ORCA-job inp E -766.191360580936
  C      -4.059582     -1.935705      1.933207
  C      -3.760890     -2.416360      0.661353
  Cl     -7.443650     -3.948142      2.821680
  C      -5.204661     -2.360992      2.697046
  H      -3.410523     -1.192940      2.407132
  C      -4.581478     -3.367612      0.036464
  H      -2.871769     -2.044572      0.144243
  C      -5.713335     -3.824026      0.725663
  H      -4.352802     -3.748359     -0.959489
  C      -6.005768     -3.339571      1.996458
  H      -6.375557     -4.564325      0.271276
  O      -5.478214     -1.912892      3.866624
12
Coordinates from ORCA-job inp E -766.191361596827
  C      -4.059353     -1.935176      1.933046
  C      -3.761044     -2.416553      0.661554
  Cl     -7.443946     -3.950458      2.821000
  C      -5.206330     -2.358519      2.696258
  H      -3.409486     -1.193400      2.407213
  C      -4.581892     -3.367043      0.036687
  H      -2.871439     -2.045266      0.144867
  C      -5.713463     -3.823975      0.725605
  H      -4.353096     -3.748160     -0.959155
  C      -6.005523     -3.338851      1.996039
  H      -6.375709     -4.564696      0.272151
  O      -5.476950     -1.913399      3.866391
12
Coordinates from ORCA-job inp E -766.191362919214
  C      -4.059217     -1.935309      1.933093
  C      -3.761081     -2.416524      0.661559
  Cl     -7.443968     -3.949942      2.820718
  C      -5.205437     -2.359933      2.696763
  H      -3.409646     -1.193002      2.406824
  C      -4.581818     -3.367247      0.036993
  H      -2.871701     -2.044974      0.144580
  C      -5.713418     -3.823864      0.725671
  H      -4.353087     -3.748241     -0.958966
  C      -6.005583     -3.339071      1.996305
  H      -6.375747     -4.564359      0.271839
  O      -5.477527     -1.913030      3.866277
12
Coordinates from ORCA-job inp E -766.191362957571
  C      -4.059192     -1.935299      1.933084
  C      -3.761091     -2.416517      0.661557
  Cl     -7.443978     -3.949866      2.820626
  C      -5.205469     -2.359963      2.696749
  H      -3.409582     -1.193004      2.406777
  C      -4.581852     -3.367246      0.036999
  H      -2.871700     -2.044950      0.144597
  C      -5.713373     -3.823921      0.725684
  H      -4.353127     -3.748194     -0.958988
  C      -6.005533     -3.339090      1.996356
  H      -6.375745     -4.564402      0.271886
  O      -5.477588     -1.913042      3.866330
