12
tb_lite_results_original.json_gp338_b0_rot90 Î”E=-14.108 kcal/mol
C -5.267392 -3.658147 0.543897
C -6.532156 -4.056759 1.249702
O -7.979711 -5.999443 1.234597
O -6.819656 -3.604019 2.355338
O -7.548414 -4.988656 -0.733482
C -7.444186 -5.114165 0.525971
H -4.585660 -3.108220 1.208321
H -4.754648 -4.558630 0.153448
H -5.524779 -3.046605 -0.337555
O -8.649380 -7.294624 -1.834447
H -8.270151 -6.500331 -1.455218
H -9.110754 -7.710511 -1.106009
