12
tb_lite_results_shiftn0p15.json_gp338_b0_rot90 Î”E=-14.163 kcal/mol
C -5.267392 -3.658147 0.543897
C -6.532156 -4.056759 1.249702
O -7.979711 -5.999443 1.234597
O -6.819656 -3.604019 2.355338
O -7.548414 -4.988656 -0.733482
C -7.444186 -5.114165 0.525971
H -4.585660 -3.108220 1.208321
H -4.754648 -4.558630 0.153448
H -5.524779 -3.046605 -0.337555
O -8.590027 -7.170309 -1.775094
H -8.210798 -6.376015 -1.395865
H -9.051401 -7.586195 -1.046656
