4
 energy: -10.998302581603 gnorm: 0.000190979985 xtb: 6.7.1 (edcfbbe)
C           -3.13029191485617        2.37939714442496       -0.00000281247627
O           -3.33534904874390        3.59203810595916        0.00000725270219
O           -2.08762133669991        1.72718383101533       -0.00000167738591
H           -4.11933345904870        1.71765131874954       -0.00001596146124
