15
 energy: -22.906096373102 gnorm: 0.000788717349 xtb: 6.7.1 (edcfbbe)
C           -5.23169328304735       -6.37930991165656        2.97376721776699
C           -5.07286942854682       -5.13366210871422        3.56270374162488
H           -5.90042833726536       -7.10762823543071        3.41232337138187
C           -4.67606390810643       -8.02605208761963        1.15434316918047
C           -4.22856505341424       -4.19379783018294        3.02232182069797
H           -5.62349956321498       -4.89470733383576        4.46612483715339
C           -3.48258701660126       -4.45542771225085        1.84098589364711
H           -4.10795519301029       -3.22019922107860        3.48651257560475
C           -3.67527511840651       -5.74101880809519        1.27076602857870
O           -2.68852910907176       -3.58510631795385        1.32172753654337
C           -4.52401786707698       -6.68294856973664        1.81557849095089
H           -5.37849219497842       -8.64754392123807        1.70460423674590
H           -5.03686080031209       -7.90488913372941        0.13354816097353
H           -3.71403123182473       -8.53543373801265        1.11016539334599
H           -3.11828817226872       -5.96738786754288        0.36633742007885
