7
 energy: -20.793632623326 gnorm: 0.000891245907 xtb: 6.7.1 (edcfbbe)
C           -5.81403723268340       -2.88937383935097        2.59210671166317
Cl          -4.63406698973069       -1.65407087257816        2.43958163771848
Cl          -6.38811107164910       -3.57010674477824        1.13273652543608
Cl          -6.97929931068748       -2.65915395922419        3.82871564945655
O           -4.54509552115729       -5.49699523115259        3.91594004910245
H           -4.21434345832935       -4.65347691208452        3.59775154084490
H           -5.40338061843580       -5.33162851245841        4.31169513643713
