11
tb_lite_results_shiftn0p2.json_gp280_b0_rot270 Î”E=-15.060 kcal/mol
C -3.811318 -0.661628 -0.675668
C -2.496413 0.130439 -0.851168
N -1.412929 -0.472893 -0.364267
O -2.586384 1.260475 -1.435856
H -4.551342 -0.045494 -0.120897
H -4.263766 -0.866902 -1.669948
H -3.666692 -1.621259 -0.140914
H -0.632407 0.186735 -0.566180
O -0.446170 2.282303 -2.457684
H -1.240463 1.903074 -2.078455
H 0.118710 1.529238 -2.631618
