11
tb_lite_results_shiftn0p15.json_gp252_b0_rot90 Î”E=-15.107 kcal/mol
C -3.811318 -0.661628 -0.675668
C -2.496413 0.130439 -0.851168
N -1.412929 -0.472893 -0.364267
O -2.586384 1.260475 -1.435856
H -4.551342 -0.045494 -0.120897
H -4.263766 -0.866902 -1.669948
H -3.666692 -1.621259 -0.140914
H -0.632407 0.186735 -0.566180
O -0.768921 3.077938 -0.867370
H -1.430621 2.416239 -1.074344
H -0.403718 2.796481 -0.028407
