!OPT PBE D3BJ def2-TZVP CPCM(water)

*xyz -1 1
C     -2.096894   -2.891834    1.601737
C     -2.482361   -2.228194    0.496453
C     -3.737258   -2.577291   -0.162880
C     -4.500225   -3.567120    0.346863
C     -4.081409   -4.286098    1.545339
C     -2.921692   -3.956530    2.146525
O     -6.439089   -4.809980    0.152017
H     -2.585676   -4.474633    3.039280
H     -1.885616   -1.428752    0.068182
H     -4.004239   -2.012618   -1.051410
N     -5.754958   -3.897875   -0.333807
H     -4.708315   -5.079092    1.940384
O     -6.063900   -3.255862   -1.348619
N     -1.141931   -2.633790    2.112402
H     -0.274895   -2.401611    2.578516
*
