15
Coordinates from ORCA-job inp E -491.170185753854
  C      -2.096894     -2.891834      1.601737
  C      -2.482361     -2.228194      0.496453
  C      -3.737258     -2.577291     -0.162880
  C      -4.500225     -3.567120      0.346863
  C      -4.081409     -4.286098      1.545339
  C      -2.921692     -3.956530      2.146525
  O      -6.439089     -4.809980      0.152017
  H      -2.585676     -4.474633      3.039280
  H      -1.885616     -1.428752      0.068182
  H      -4.004239     -2.012618     -1.051410
  N      -5.754958     -3.897875     -0.333807
  H      -4.708315     -5.079092      1.940384
  O      -6.063900     -3.255862     -1.348619
  N      -1.141931     -2.633790      2.112402
  H      -0.274895     -2.401611      2.578516
15
Coordinates from ORCA-job inp E -491.243631946842
  C      -2.067249     -2.885579      1.619659
  C      -2.508401     -2.216470      0.460562
  C      -3.737586     -2.564790     -0.177847
  C      -4.520096     -3.573324      0.337132
  C      -4.111184     -4.289411      1.523752
  C      -2.943495     -3.964542      2.137313
  O      -6.457805     -4.831803      0.162040
  H      -2.620293     -4.493962      3.032498
  H      -1.920229     -1.413553      0.020921
  H      -4.014969     -2.005361     -1.069091
  N      -5.761993     -3.910808     -0.324656
  H      -4.749536     -5.083298      1.909978
  O      -6.093583     -3.275896     -1.350469
  N      -1.011856     -2.606812      2.191585
  H      -0.160182     -2.385671      2.657604
15
Coordinates from ORCA-job inp E -491.254119515099
  C      -2.058720     -2.887480      1.628842
  C      -2.530393     -2.219947      0.443846
  C      -3.724661     -2.557053     -0.178012
  C      -4.528913     -3.578679      0.334577
  C      -4.126050     -4.286719      1.505430
  C      -2.952689     -3.961922      2.124286
  O      -6.461181     -4.838790      0.173626
  H      -2.632828     -4.495459      3.021821
  H      -1.936885     -1.414867      0.006825
  H      -4.012629     -2.003418     -1.070960
  N      -5.750480     -3.915134     -0.308266
  H      -4.769170     -5.080327      1.886654
  O      -6.098923     -3.285789     -1.341521
  N      -0.972202     -2.597927      2.217963
  H      -0.122732     -2.377769      2.685870
15
Coordinates from ORCA-job inp E -491.255885229191
  C      -2.054639     -2.891239      1.636764
  C      -2.540565     -2.221626      0.436464
  C      -3.720391     -2.551663     -0.180018
  C      -4.539664     -3.582614      0.331986
  C      -4.131041     -4.283392      1.497437
  C      -2.953581     -3.958360      2.118090
  O      -6.468493     -4.842720      0.173247
  H      -2.634746     -4.494102      3.015897
  H      -1.934960     -1.417438      0.010137
  H      -4.022843     -2.006972     -1.074675
  N      -5.747407     -3.915200     -0.300445
  H      -4.772696     -5.077471      1.879572
  O      -6.101207     -3.291292     -1.342834
  N      -0.952920     -2.593564      2.230210
  H      -0.103305     -2.373627      2.699150
15
Coordinates from ORCA-job inp E -491.255919468874
  C      -2.054841     -2.892789      1.640741
  C      -2.540286     -2.221598      0.433941
  C      -3.717265     -2.553533     -0.186537
  C      -4.539225     -3.590561      0.324550
  C      -4.126615     -4.286123      1.492579
  C      -2.951009     -3.958031      2.116403
  O      -6.482461     -4.828976      0.183994
  H      -2.634163     -4.493819      3.015038
  H      -1.926856     -1.417876      0.017724
  H      -4.028529     -2.016863     -1.083176
  N      -5.741167     -3.925242     -0.308779
  H      -4.764950     -5.082555      1.875840
  O      -6.112765     -3.278541     -1.333905
  N      -0.952791     -2.587802      2.234887
  H      -0.105536     -2.366969      2.707681
15
Coordinates from ORCA-job inp E -491.255967839016
  C      -2.053531     -2.899168      1.645757
  C      -2.540912     -2.217562      0.431858
  C      -3.721342     -2.542637     -0.187782
  C      -4.553583     -3.583942      0.328593
  C      -4.127057     -4.276724      1.495973
  C      -2.947546     -3.954080      2.116588
  O      -6.478562     -4.846919      0.166852
  H      -2.632116     -4.494584      3.013071
  H      -1.907812     -1.419503      0.034625
  H      -4.055169     -2.019128     -1.084317
  N      -5.753304     -3.911063     -0.297349
  H      -4.761729     -5.073385      1.885969
  O      -6.103907     -3.297966     -1.355853
  N      -0.944793     -2.588852      2.230722
  H      -0.097097     -2.375769      2.706273
15
Coordinates from ORCA-job inp E -491.256277882511
  C      -2.055779     -2.895699      1.641249
  C      -2.540463     -2.218725      0.432650
  C      -3.719569     -2.546974     -0.185827
  C      -4.544939     -3.584557      0.329233
  C      -4.126479     -4.280439      1.496393
  C      -2.949273     -3.956612      2.117821
  O      -6.475116     -4.840645      0.173272
  H      -2.633798     -4.495640      3.014894
  H      -1.916179     -1.418628      0.026759
  H      -4.044201     -2.017770     -1.082194
  N      -5.748250     -3.914501     -0.300823
  H      -4.763331     -5.076594      1.883471
  O      -6.103630     -3.290539     -1.347350
  N      -0.952014     -2.587377      2.226313
  H      -0.105436     -2.376579      2.705120
15
Coordinates from ORCA-job inp E -491.256453215312
  C      -2.056512     -2.894216      1.639072
  C      -2.540643     -2.217971      0.430932
  C      -3.718849     -2.547497     -0.186624
  C      -4.542172     -3.584871      0.329142
  C      -4.124971     -4.280784      1.496113
  C      -2.948391     -3.956596      2.117831
  O      -6.474020     -4.837932      0.176637
  H      -2.633837     -4.495883      3.014941
  H      -1.915531     -1.418032      0.026436
  H      -4.046053     -2.020387     -1.083312
  N      -5.746045     -3.915638     -0.301510
  H      -4.761506     -5.077108      1.883337
  O      -6.103785     -3.288039     -1.344159
  N      -0.954411     -2.582675      2.220752
  H      -0.111733     -2.383652      2.711395
15
Coordinates from ORCA-job inp E -491.256132473388
  C      -2.062608     -2.889593      1.628516
  C      -2.540194     -2.217793      0.426233
  C      -3.712197     -2.554908     -0.188707
  C      -4.522123     -3.588957      0.327510
  C      -4.118442     -4.287465      1.493733
  C      -2.947255     -3.961869      2.119758
  O      -6.468568     -4.814177      0.199177
  H      -2.638813     -4.501826      3.017685
  H      -1.916523     -1.416622      0.024695
  H      -4.044010     -2.033701     -1.087168
  N      -5.729229     -3.925044     -0.310517
  H      -4.755815     -5.084173      1.878263
  O      -6.103948     -3.264896     -1.319591
  N      -0.973720     -2.565586      2.199005
  H      -0.145014     -2.394668      2.722389
15
Coordinates from ORCA-job inp E -491.267830614602
  C      -2.043340     -2.864656      1.614459
  C      -2.541364     -2.200175      0.405328
  C      -3.722207     -2.545242     -0.202612
  C      -4.532544     -3.586259      0.325956
  C      -4.107659     -4.273489      1.493370
  C      -2.926710     -3.935951      2.108679
  O      -6.471297     -4.837446      0.203870
  H      -2.610104     -4.471510      3.006968
  H      -1.916952     -1.398814      0.001872
  H      -4.069147     -2.033566     -1.101059
  N      -5.740095     -3.929892     -0.297848
  H      -4.736038     -5.071564      1.889573
  O      -6.121812     -3.291295     -1.324812
  N      -0.936951     -2.517048      2.167869
  H      -0.202236     -2.544374      2.839371
15
Coordinates from ORCA-job inp E -491.285431975343
  C      -2.037072     -2.841352      1.592806
  C      -2.542195     -2.186368      0.388802
  C      -3.722451     -2.540295     -0.206998
  C      -4.522429     -3.580953      0.331150
  C      -4.089327     -4.262267      1.498122
  C      -2.907748     -3.915468      2.101977
  O      -6.451396     -4.843976      0.223104
  H      -2.582561     -4.445346      3.000613
  H      -1.925133     -1.384065     -0.022967
  H      -4.075692     -2.033319     -1.105074
  N      -5.732192     -3.932313     -0.284475
  H      -4.711285     -5.061587      1.901906
  O      -6.118334     -3.303308     -1.313689
  N      -0.925068     -2.470938      2.122480
  H      -0.335576     -2.699725      2.903225
15
Coordinates from ORCA-job inp E -491.300754145778
  C      -2.026154     -2.821345      1.578674
  C      -2.537491     -2.171987      0.376665
  C      -3.720595     -2.532732     -0.211642
  C      -4.516195     -3.576425      0.335507
  C      -4.068171     -4.248474      1.503409
  C      -2.883922     -3.892306      2.096668
  O      -6.436562     -4.854953      0.240356
  H      -2.548742     -4.415807      2.995775
  H      -1.925527     -1.368841     -0.041648
  H      -4.079151     -2.029441     -1.109512
  N      -5.726415     -3.935768     -0.269563
  H      -4.682466     -5.048932      1.915920
  O      -6.119631     -3.318986     -1.305500
  N      -0.900488     -2.431787      2.095040
  H      -0.506947     -2.853499      2.930833
15
Coordinates from ORCA-job inp E -491.305597159174
  C      -2.018778     -2.805401      1.566763
  C      -2.531149     -2.159681      0.369342
  C      -3.715017     -2.524725     -0.211944
  C      -4.503931     -3.569328      0.343410
  C      -4.044772     -4.233778      1.511392
  C      -2.859251     -3.870957      2.095570
  O      -6.411891     -4.864342      0.260185
  H      -2.514612     -4.388818      2.995060
  H      -1.926554     -1.356020     -0.057946
  H      -4.075091     -2.022365     -1.109556
  N      -5.714880     -3.936850     -0.252101
  H      -4.652935     -5.034962      1.930915
  O      -6.111660     -3.333191     -1.294196
  N      -0.877605     -2.404521      2.077740
  H      -0.720333     -2.996339      2.906347
15
Coordinates from ORCA-job inp E -491.305987533996
  C      -2.020531     -2.807759      1.568211
  C      -2.534301     -2.160162      0.369329
  C      -3.719607     -2.522988     -0.213523
  C      -4.510226     -3.568484      0.341440
  C      -4.049787     -4.231872      1.509654
  C      -2.863110     -3.870369      2.094454
  O      -6.414580     -4.869642      0.253636
  H      -2.518669     -4.389232      2.993930
  H      -1.929412     -1.357140     -0.059260
  H      -4.078719     -2.019746     -1.111185
  N      -5.720207     -3.936593     -0.253634
  H      -4.658339     -5.032807      1.929127
  O      -6.114330     -3.337966     -1.300434
  N      -0.874864     -2.415096      2.086731
  H      -0.671778     -2.981425      2.922507
15
Coordinates from ORCA-job inp E -491.306049196657
  C      -2.022621     -2.807291      1.565505
  C      -2.534536     -2.159631      0.369050
  C      -3.719647     -2.523032     -0.213318
  C      -4.507772     -3.567601      0.342039
  C      -4.048566     -4.231050      1.510245
  C      -2.862493     -3.869467      2.094877
  O      -6.411347     -4.869673      0.254905
  H      -2.518076     -4.387852      2.994499
  H      -1.932354     -1.356175     -0.061988
  H      -4.077481     -2.018764     -1.110766
  N      -5.718896     -3.937271     -0.253755
  H      -4.657403     -5.031735      1.929837
  O      -6.113102     -3.337711     -1.298681
  N      -0.875270     -2.416748      2.086660
  H      -0.678895     -2.987280      2.921873
15
Coordinates from ORCA-job inp E -491.306080690430
  C      -2.024655     -2.806838      1.563189
  C      -2.534134     -2.158485      0.368875
  C      -3.720083     -2.522654     -0.213788
  C      -4.506497     -3.567018      0.342198
  C      -4.047272     -4.229777      1.510635
  C      -2.861270     -3.867644      2.095266
  O      -6.409508     -4.870447      0.255608
  H      -2.517048     -4.385434      2.995031
  H      -1.934256     -1.354458     -0.064030
  H      -4.077777     -2.017936     -1.110937
  N      -5.718429     -3.938441     -0.254017
  H      -4.655988     -5.030332      1.930769
  O      -6.112873     -3.338546     -1.297914
  N      -0.873084     -2.418752      2.088335
  H      -0.685583     -2.994521      2.921761
15
Coordinates from ORCA-job inp E -491.306082404131
  C      -2.025115     -2.807065      1.562930
  C      -2.534056     -2.158551      0.369064
  C      -3.719953     -2.522791     -0.213522
  C      -4.506347     -3.567107      0.342339
  C      -4.047626     -4.230115      1.510761
  C      -2.861581     -3.868039      2.095469
  O      -6.409537     -4.870024      0.255389
  H      -2.517757     -4.385973      2.995225
  H      -1.934169     -1.354457     -0.063549
  H      -4.078139     -2.018353     -1.110630
  N      -5.718302     -3.938298     -0.254246
  H      -4.656460     -5.030645      1.930810
  O      -6.112307     -3.338257     -1.298140
  N      -0.873187     -2.418532      2.087721
  H      -0.683920     -2.993073      2.921360
15
Coordinates from ORCA-job inp E -491.306083000970
  C      -2.025343     -2.807244      1.562966
  C      -2.533926     -2.158581      0.369275
  C      -3.719823     -2.522812     -0.213321
  C      -4.506416     -3.567219      0.342425
  C      -4.047924     -4.230371      1.510863
  C      -2.861752     -3.868290      2.095637
  O      -6.409849     -4.869702      0.255083
  H      -2.518268     -4.386423      2.995375
  H      -1.933676     -1.354497     -0.062793
  H      -4.078800     -2.018865     -1.110410
  N      -5.718299     -3.938116     -0.254407
  H      -4.656745     -5.030913      1.930882
  O      -6.111928     -3.338199     -1.298594
  N      -0.872993     -2.418065      2.087111
  H      -0.682716     -2.991985      2.920889
