5
 energy: -7.993680483862 gnorm: 0.000278815486 xtb: 6.7.1 (edcfbbe)
O           -1.21982700268468        4.34461946504813       -1.33607670737185
C           -1.48384917380710        3.37662011735242       -0.47830010885520
H           -2.34282718326907        2.71029706922221       -0.79070064397710
H           -0.61863807881206        2.66834161448848       -0.30710037121769
H           -1.76490159960523        3.74377252212425        0.55411836980611
