13
tb_lite_results_shiftn0p05.json_gp601_b0_rot270 Î”E=-15.123 kcal/mol
C -5.659144 -3.850609 0.512058
C -6.951194 -4.310917 1.180795
H -4.904455 -4.650105 0.510441
H -5.832584 -3.562259 -0.535151
H -5.230611 -2.980946 1.034556
C -7.651509 -5.542593 0.553975
H -6.765298 -4.557111 2.240638
H -7.688992 -3.491505 1.200053
O -7.065206 -6.154861 -0.388203
O -8.777964 -5.847959 1.055224
O -9.859145 -8.112488 -0.025958
H -9.479916 -7.318195 0.353271
H -9.586911 -8.092754 -0.943535
