13
tb_lite_results_original.json_gp589_b0_rot270 Î”E=-15.003 kcal/mol
C -5.659144 -3.850609 0.512058
C -6.951194 -4.310917 1.180795
H -4.904455 -4.650105 0.510441
H -5.832584 -3.562259 -0.535151
H -5.230611 -2.980946 1.034556
C -7.651509 -5.542593 0.553975
H -6.765298 -4.557111 2.240638
H -7.688992 -3.491505 1.200053
O -7.065206 -6.154861 -0.388203
O -8.777964 -5.847959 1.055224
O -9.378843 -7.768985 -0.865803
H -9.171869 -7.107286 -0.204103
H -8.790436 -7.570592 -1.594409
