13
tb_lite_results_shiftn0p05.json_gp529_b0_rot90 Î”E=-14.982 kcal/mol
C -5.659144 -3.850609 0.512058
C -6.951194 -4.310917 1.180795
H -4.904455 -4.650105 0.510441
H -5.832584 -3.562259 -0.535151
H -5.230611 -2.980946 1.034556
C -7.651509 -5.542593 0.553975
H -6.765298 -4.557111 2.240638
H -7.688992 -3.491505 1.200053
O -7.065206 -6.154861 -0.388203
O -8.777964 -5.847959 1.055224
O -9.329735 -7.236043 -1.469384
H -8.535442 -6.856814 -1.090155
H -9.894616 -7.409977 -0.716319
