12
tb_lite_results_shiftn0p2.json_gp140_b0_rot0 Î”E=-19.475 kcal/mol
H -5.145622 -2.522780 -0.899958
C -4.205110 -2.401391 -2.897740
O -2.925104 -2.225121 -2.451521
H -6.793521 -0.702182 -1.172784
C -5.228770 -1.989958 -1.857477
C -6.122200 -0.996877 -1.984078
H -6.207173 -0.436980 -2.921785
H -4.463471 -1.822683 -3.835978
H -4.456740 -3.474041 -3.176231
O -2.447062 -2.703163 0.040813
H -2.624476 -2.525749 -0.884162
H -2.574421 -1.859389 0.474718
