14
Coordinates from ORCA-job inp E -511.160380191593
  C      -2.078328     -2.841072      1.558084
  C      -2.489481     -2.194607      0.451053
  C      -3.742483     -2.564201     -0.182657
  C      -4.478397     -3.558210      0.355009
  C      -4.031073     -4.253353      1.549833
  C      -2.868804     -3.923943      2.153372
  O      -2.307418     -4.388732      3.175523
  H      -1.140148     -2.565781      2.034259
  H      -1.896604     -1.396978      0.021612
  H      -4.031550     -2.015689     -1.071057
  N      -5.737240     -3.910382     -0.304075
  H      -4.640287     -5.049851      1.964043
  O      -6.068386     -3.279951     -1.324221
  O      -6.419490     -4.824077      0.185210
14
Coordinates from ORCA-job inp E -511.174649776595
  C      -2.072626     -2.833203      1.553850
  C      -2.489357     -2.175169      0.428587
  C      -3.721627     -2.534986     -0.198944
  C      -4.462455     -3.548480      0.357438
  C      -4.046055     -4.246796      1.529661
  C      -2.852295     -3.926164      2.170150
  O      -2.356820     -4.465307      3.222392
  H      -1.131644     -2.559729      2.034370
  H      -1.895093     -1.370138     -0.008417
  H      -4.026016     -1.994157     -1.091613
  N      -5.724562     -3.920464     -0.281440
  H      -4.676615     -5.043902      1.926115
  O      -6.084950     -3.311637     -1.302256
  O      -6.389576     -4.836695      0.226096
14
Coordinates from ORCA-job inp E -511.179063646635
  C      -2.071339     -2.832899      1.554698
  C      -2.496331     -2.168864      0.415080
  C      -3.706087     -2.514957     -0.209586
  C      -4.447466     -3.544714      0.364786
  C      -4.050051     -4.236567      1.512677
  C      -2.831913     -3.916751      2.176216
  O      -2.401951     -4.509030      3.236651
  H      -1.128643     -2.560048      2.038255
  H      -1.900130     -1.362808     -0.020913
  H      -4.031754     -1.988026     -1.103859
  N      -5.713782     -3.928675     -0.263036
  H      -4.687956     -5.031572      1.899705
  O      -6.084733     -3.327410     -1.283521
  O      -6.377552     -4.844505      0.248833
14
Coordinates from ORCA-job inp E -511.179644473387
  C      -2.068653     -2.834886      1.557935
  C      -2.500308     -2.170533      0.413655
  C      -3.704923     -2.509405     -0.212639
  C      -4.446847     -3.544656      0.368899
  C      -4.048165     -4.232559      1.511600
  C      -2.818514     -3.909139      2.178388
  O      -2.413262     -4.518005      3.236159
  H      -1.124687     -2.559405      2.037711
  H      -1.899614     -1.365707     -0.017832
  H      -4.043573     -1.991520     -1.106475
  N      -5.716858     -3.927533     -0.260422
  H      -4.682517     -5.027673      1.902421
  O      -6.079219     -3.328881     -1.285989
  O      -6.382550     -4.846926      0.242578
14
Coordinates from ORCA-job inp E -511.179115401812
  C      -2.069634     -2.832344      1.564335
  C      -2.503358     -2.172528      0.415019
  C      -3.700653     -2.514463     -0.220377
  C      -4.440141     -3.557098      0.360292
  C      -4.041318     -4.238682      1.505290
  C      -2.810720     -3.903908      2.179350
  O      -2.421374     -4.516145      3.237037
  H      -1.129079     -2.546139      2.044034
  H      -1.899508     -1.365855     -0.007864
  H      -4.047067     -2.006628     -1.116190
  N      -5.705442     -3.946742     -0.279469
  H      -4.668164     -5.037964      1.899126
  O      -6.090895     -3.305321     -1.270571
  O      -6.402334     -4.823012      0.255977
14
Coordinates from ORCA-job inp E -511.179768071979
  C      -2.066726     -2.835748      1.561624
  C      -2.502347     -2.173507      0.415847
  C      -3.705571     -2.509441     -0.214635
  C      -4.448286     -3.547373      0.367848
  C      -4.046038     -4.232868      1.511391
  C      -2.811725     -3.904778      2.178743
  O      -2.416565     -4.517397      3.233162
  H      -1.122195     -2.553251      2.035339
  H      -1.895292     -1.369694     -0.007837
  H      -4.053926     -1.999095     -1.108240
  N      -5.718824     -3.928435     -0.266070
  H      -4.673483     -5.029982      1.909060
  O      -6.078659     -3.323688     -1.289382
  O      -6.390053     -4.841568      0.239139
14
Coordinates from ORCA-job inp E -511.179783227642
  C      -2.067102     -2.835522      1.561067
  C      -2.502088     -2.173359      0.416033
  C      -3.705420     -2.509942     -0.213917
  C      -4.448338     -3.547166      0.367401
  C      -4.046830     -4.233267      1.511018
  C      -2.814023     -3.906290      2.178402
  O      -2.415945     -4.517126      3.233205
  H      -1.122387     -2.551900      2.033684
  H      -1.894425     -1.369521     -0.006992
  H      -4.053620     -1.999261     -1.107638
  N      -5.718227     -3.928126     -0.266244
  H      -4.673800     -5.030507      1.909143
  O      -6.078539     -3.324170     -1.289620
  O      -6.388945     -4.840671      0.240449
14
Coordinates from ORCA-job inp E -511.179790582277
  C      -2.067125     -2.835653      1.561240
  C      -2.502290     -2.173598      0.416385
  C      -3.705297     -2.509969     -0.213678
  C      -4.448555     -3.547154      0.367039
  C      -4.047167     -4.233379      1.510572
  C      -2.814682     -3.906846      2.178280
  O      -2.416373     -4.517495      3.232862
  H      -1.122031     -2.549719      2.031537
  H      -1.892744     -1.369983     -0.004487
  H      -4.055584     -2.000577     -1.107399
  N      -5.718202     -3.927729     -0.266950
  H      -4.672302     -5.031108      1.910539
  O      -6.077917     -3.324494     -1.290850
  O      -6.389419     -4.839124      0.240898
14
Coordinates from ORCA-job inp E -511.179792157711
  C      -2.067153     -2.835863      1.561484
  C      -2.502470     -2.173604      0.416490
  C      -3.705191     -2.509752     -0.213740
  C      -4.448586     -3.547116      0.366867
  C      -4.047181     -4.233343      1.510264
  C      -2.814659     -3.907055      2.178276
  O      -2.416835     -4.518129      3.232755
  H      -1.121830     -2.548563      2.030432
  H      -1.891809     -1.370100     -0.002989
  H      -4.057042     -2.001312     -1.107408
  N      -5.718240     -3.927543     -0.267299
  H      -4.671077     -5.031427      1.911464
  O      -6.077290     -3.325085     -1.291896
  O      -6.390325     -4.837936      0.241288
