8
 energy: -10.364848698590 gnorm: 0.000512458295 xtb: 6.7.1 (edcfbbe)
C           -2.17425496408923        1.50129682037026        0.01364258952661
C           -0.72095765048650        1.73595456701556       -0.37319423641195
H           -2.21473112240726        0.99199663572448        0.97486140270091
H           -2.68085054931314        2.45956023215649        0.11388785134401
H           -2.67772090941458        0.89866250954351       -0.74097754293406
S            0.18090829001128        2.73731479650002        0.84568473200039
H           -0.19018228739545        0.77889382237668       -0.47107426670744
H           -0.65980925501083        2.25726522996393       -1.33847097087465
