4
 energy: -15.933623514438 gnorm: 0.000255697396 xtb: 6.7.1 (edcfbbe)
C           -5.77897615296679       -2.76537286156478        2.58307311928489
Cl          -4.34589701472927       -1.78285611017066        2.52059135142044
Cl          -6.20747581838701       -3.76501144800913        1.22658127562706
Cl          -6.78358386556840       -2.74821151260681        4.00202624945858
