3
 energy: -8.709312189800 gnorm: 0.000335696771 xtb: 6.7.1 (edcfbbe)
O           -2.94374256465943       -4.48067359334728        2.79183632552920
O           -4.17146661885502       -5.22492621669244        2.54194657168456
H           -2.40479087868910       -4.77936845308443        2.05195861477273
