9
 energy: -13.293314999035 gnorm: 0.000411458011 xtb: 6.7.1 (edcfbbe)
C           -3.79829529085929       -0.62558072771182       -0.74614735478022
C           -2.70618696498872        0.16925175379490       -0.78125847272140
C           -1.39623827119686       -0.38943285416300       -0.20930352279049
O           -2.66656475730747        1.36893003600695       -1.25845326499745
H           -3.76664178004802       -1.62122039516811       -0.33296394638622
H           -4.74816470239622       -0.28684857364811       -1.13402355107423
H           -1.53461377586851       -1.39923458033846        0.16650192663411
H           -0.63580720201120       -0.38828395818565       -0.98955954921151
H           -1.05192788022436        0.25886190045698        0.59580367774458
