6
Coordinates from ORCA-job inp E -190.235664870556
  C      -7.135065     -4.408649      1.593848
  H      -7.892421     -3.620659      1.537139
  O      -7.634223     -5.613817      1.035649
  H      -6.225232     -4.095843      1.072224
  H      -6.892962     -4.587436      2.644767
  O      -7.921586     -5.309305     -0.306079
6
Coordinates from ORCA-job inp E -190.239068269096
  C      -7.131554     -4.406816      1.604215
  H      -7.892903     -3.604981      1.543047
  O      -7.630481     -5.605031      1.042502
  H      -6.214504     -4.083151      1.074826
  H      -6.889240     -4.596225      2.666020
  O      -7.942806     -5.339505     -0.353063
6
Coordinates from ORCA-job inp E -190.239631913042
  C      -7.132219     -4.409068      1.604877
  H      -7.889261     -3.598227      1.543212
  O      -7.628353     -5.605472      1.054797
  H      -6.214727     -4.075776      1.074554
  H      -6.890659     -4.603173      2.666076
  O      -7.946270     -5.343993     -0.365968
6
Coordinates from ORCA-job inp E -190.239713144415
  C      -7.133453     -4.411195      1.603332
  H      -7.885444     -3.595452      1.542847
  O      -7.627656     -5.607196      1.061465
  H      -6.217126     -4.071802      1.074774
  H      -6.891706     -4.606251      2.664176
  O      -7.946105     -5.343812     -0.369046
6
Coordinates from ORCA-job inp E -190.239718465845
  C      -7.134043     -4.412108      1.602400
  H      -7.884066     -3.594838      1.542961
  O      -7.627763     -5.608066      1.062457
  H      -6.218035     -4.070768      1.075162
  H      -6.891885     -4.606451      2.663439
  O      -7.945696     -5.343479     -0.368870
6
Coordinates from ORCA-job inp E -190.239719642585
  C      -7.134382     -4.412670      1.601877
  H      -7.883448     -3.594552      1.543243
  O      -7.627926     -5.608410      1.062383
  H      -6.218331     -4.070337      1.075520
  H      -6.891888     -4.606229      2.663111
  O      -7.945513     -5.343511     -0.368586
6
Coordinates from ORCA-job inp E -190.239719885633
  C      -7.134495     -4.412905      1.601722
  H      -7.883305     -3.594435      1.543463
  O      -7.627983     -5.608386      1.062111
  H      -6.218287     -4.070213      1.075738
  H      -6.891864     -4.606042      2.663045
  O      -7.945555     -5.343727     -0.368530
