2
Coordinates from ORCA-job inp E -150.365978312336
  O      -3.032813     -4.552245      2.749850
  O      -4.137289     -5.180783      2.580746
2
Coordinates from ORCA-job inp E -150.370301362682
  O      -3.010993     -4.539827      2.753191
  O      -4.159109     -5.193201      2.577405
2
Coordinates from ORCA-job inp E -150.370784010918
  O      -3.002080     -4.534755      2.754555
  O      -4.168022     -5.198273      2.576041
2
Coordinates from ORCA-job inp E -150.370805448299
  O      -2.999880     -4.533503      2.754892
  O      -4.170222     -5.199525      2.575704
2
Coordinates from ORCA-job inp E -150.370805589840
  O      -2.999695     -4.533398      2.754921
  O      -4.170407     -5.199630      2.575675
2
Coordinates from ORCA-job inp E -150.370805594979
  O      -2.999692     -4.533396      2.754921
  O      -4.170410     -5.199632      2.575675
