6
 energy: -14.325629393355 gnorm: 0.000827794264 xtb: 6.7.1 (edcfbbe)
N           -6.59538428656702       -2.95187734096378        3.29781967876776
C           -5.55982094161370       -2.68622319124337        2.54341316225836
H           -5.69186183627883       -2.59331517635567        1.48083579131970
O           -7.74306341043516       -3.09530363035727        2.77307037255060
H           -4.59318537389033       -2.56759648478506        2.99804724999638
O           -6.45283434812527       -3.06508654882338        4.55478422929672
