! OPT PBE D3BJ def2-TZVP CPCM(water)

* xyz -1 1 
C     -3.805272   -0.633899   -0.744213
C     -2.725765    0.163848   -0.784679
C     -1.417941   -0.360399   -0.226950
O     -2.615556    1.334415   -1.232105
H     -3.771032   -1.632013   -0.328945
H     -4.751097   -0.277481   -1.138318
H     -1.517078   -1.380915    0.162308
H     -0.639311   -0.389807   -0.999735
H     -1.061357    0.262585    0.603150
*
