9
Coordinates from ORCA-job inp E -192.492092996562
  C      -3.805272     -0.633899     -0.744213
  C      -2.725765      0.163848     -0.784679
  C      -1.417941     -0.360399     -0.226950
  O      -2.615556      1.334415     -1.232105
  H      -3.771032     -1.632013     -0.328945
  H      -4.751097     -0.277481     -1.138318
  H      -1.517078     -1.380915      0.162308
  H      -0.639311     -0.389807     -0.999735
  H      -1.061357      0.262585      0.603150
9
Coordinates from ORCA-job inp E -192.496427296279
  C      -3.823344     -0.636731     -0.747267
  C      -2.717448      0.176296     -0.788041
  C      -1.401644     -0.373450     -0.217351
  O      -2.634688      1.371385     -1.253005
  H      -3.788041     -1.642698     -0.329600
  H      -4.780007     -0.280953     -1.143689
  H      -1.495847     -1.400746      0.175661
  H      -0.620523     -0.388953     -0.993635
  H      -1.042867      0.262184      0.607440
9
Coordinates from ORCA-job inp E -192.496829418540
  C      -3.827416     -0.636206     -0.747695
  C      -2.710532      0.178263     -0.787090
  C      -1.398305     -0.381315     -0.213173
  O      -2.642355      1.379331     -1.259871
  H      -3.791097     -1.643567     -0.330327
  H      -4.784787     -0.281413     -1.144086
  H      -1.493000     -1.407079      0.178059
  H      -0.617441     -0.384871     -0.991210
  H      -1.039476      0.263191      0.605906
9
Coordinates from ORCA-job inp E -192.496876273162
  C      -3.827766     -0.635419     -0.747625
  C      -2.706769      0.177137     -0.786319
  C      -1.398220     -0.384567     -0.211872
  O      -2.644157      1.378933     -1.260977
  H      -3.790539     -1.643045     -0.330404
  H      -4.784722     -0.280797     -1.143614
  H      -1.495001     -1.409199      0.177731
  H      -0.617465     -0.381377     -0.990337
  H      -1.039769      0.264669      0.603930
9
Coordinates from ORCA-job inp E -192.496884555205
  C      -3.827620     -0.634843     -0.747404
  C      -2.705370      0.176122     -0.785385
  C      -1.398596     -0.385619     -0.211532
  O      -2.643980      1.377228     -1.260885
  H      -3.789541     -1.642562     -0.330275
  H      -4.784190     -0.280463     -1.143608
  H      -1.497149     -1.409928      0.177004
  H      -0.617911     -0.379177     -0.990132
  H      -1.040052      0.265574      0.602730
9
Coordinates from ORCA-job inp E -192.496885503672
  C      -3.827604     -0.634648     -0.747362
  C      -2.705186      0.175595     -0.785450
  C      -1.398744     -0.385712     -0.211585
  O      -2.643537      1.376485     -1.260612
  H      -3.788970     -1.642331     -0.330125
  H      -4.784175     -0.280386     -1.143426
  H      -1.498090     -1.410047      0.176593
  H      -0.617844     -0.378458     -0.989937
  H      -1.040260      0.265835      0.602417
