!OPT PBE D3BJ def2-TZVP CPCM(water)

*xyz -1 1
C     -4.851962   -2.758241    2.223928
C     -5.920887   -3.384325    3.054301
H     -5.113755   -1.727019    1.966360
H     -3.915192   -2.731893    2.790984
H     -4.661634   -3.324844    1.306934
C     -7.214951   -3.766522    2.561984
H     -5.741385   -3.496113    4.116605
H     -8.370280   -3.638239    4.347705
C     -8.298026   -4.281676    3.461247
H     -9.282450   -4.235484    2.975692
C     -8.047709   -5.716582    3.911707
O     -7.470957   -3.576198    1.352526
H     -7.109002   -5.802891    4.469014
H     -8.857709   -6.050632    4.567898
H     -8.002073   -6.398808    3.056438
*
