15
Coordinates from ORCA-job inp E -271.027108793680
  C      -4.851962     -2.758241      2.223928
  C      -5.920887     -3.384325      3.054301
  H      -5.113755     -1.727019      1.966360
  H      -3.915192     -2.731893      2.790984
  H      -4.661634     -3.324844      1.306934
  C      -7.214951     -3.766522      2.561984
  H      -5.741385     -3.496113      4.116605
  H      -8.370280     -3.638239      4.347705
  C      -8.298026     -4.281676      3.461247
  H      -9.282450     -4.235484      2.975692
  C      -8.047709     -5.716582      3.911707
  O      -7.470957     -3.576198      1.352526
  H      -7.109002     -5.802891      4.469014
  H      -8.857709     -6.050632      4.567898
  H      -8.002073     -6.398808      3.056438
15
Coordinates from ORCA-job inp E -271.035627022351
  C      -4.858572     -2.788051      2.234627
  C      -5.967947     -3.353547      3.074617
  H      -5.063159     -1.745465      1.922239
  H      -3.917704     -2.779471      2.805835
  H      -4.680420     -3.383471      1.321969
  C      -7.232941     -3.688785      2.556345
  H      -5.805543     -3.462228      4.153576
  H      -8.383856     -3.641276      4.383835
  C      -8.295549     -4.266309      3.478368
  H      -9.277204     -4.226990      2.981970
  C      -8.018517     -5.716002      3.903425
  O      -7.506605     -3.569984      1.307433
  H      -7.074478     -5.793679      4.459800
  H      -8.823910     -6.096304      4.552621
  H      -7.951567     -6.377905      3.026663
15
Coordinates from ORCA-job inp E -271.037463351265
  C      -4.862672     -2.786562      2.242340
  C      -5.992799     -3.323105      3.085344
  H      -5.055000     -1.766527      1.844504
  H      -3.928287     -2.729737      2.825205
  H      -4.658890     -3.423687      1.359123
  C      -7.202457     -3.699441      2.544144
  H      -5.855528     -3.388613      4.172864
  H      -8.319804     -3.655709      4.420917
  C      -8.263369     -4.267563      3.501620
  H      -9.244806     -4.183208      3.006167
  C      -8.031635     -5.737010      3.895375
  O      -7.531141     -3.578452      1.285434
  H      -7.082664     -5.853459      4.439374
  H      -8.841929     -6.117681      4.541328
  H      -7.986990     -6.378713      2.999583
15
Coordinates from ORCA-job inp E -271.038042570498
  C      -4.863345     -2.788482      2.245546
  C      -6.002397     -3.295987      3.093554
  H      -5.038966     -1.776953      1.824946
  H      -3.927436     -2.731204      2.823762
  H      -4.669982     -3.440823      1.373454
  C      -7.211388     -3.678637      2.557005
  H      -5.862885     -3.352586      4.177180
  H      -8.313815     -3.664847      4.445863
  C      -8.265408     -4.260694      3.517958
  H      -9.248139     -4.166642      3.026596
  C      -8.030850     -5.734904      3.880370
  O      -7.520967     -3.649303      1.288164
  H      -7.080381     -5.859476      4.419514
  H      -8.837302     -6.132393      4.517715
  H      -7.984710     -6.356537      2.971694
15
Coordinates from ORCA-job inp E -271.038690642528
  C      -4.859361     -2.771131      2.243732
  C      -6.000572     -3.255972      3.100021
  H      -5.043406     -1.786401      1.770245
  H      -3.929520     -2.669822      2.823892
  H      -4.649503     -3.459710      1.404922
  C      -7.197531     -3.697758      2.571016
  H      -5.867614     -3.263512      4.183845
  H      -8.258166     -3.687234      4.486438
  C      -8.251539     -4.261169      3.545083
  H      -9.238406     -4.120604      3.073217
  C      -8.058307     -5.749669      3.857854
  O      -7.490543     -3.760564      1.301732
  H      -7.105203     -5.919135      4.380011
  H      -8.867487     -6.144266      4.491493
  H      -8.040813     -6.342521      2.929822
15
Coordinates from ORCA-job inp E -271.039396684284
  C      -4.855768     -2.750901      2.239538
  C      -5.996443     -3.216283      3.104138
  H      -5.057464     -1.802028      1.704966
  H      -3.937199     -2.588913      2.822667
  H      -4.616198     -3.480776      1.444714
  C      -7.175258     -3.730876      2.588563
  H      -5.877519     -3.156660      4.187697
  H      -8.188784     -3.716399      4.530129
  C      -8.231559     -4.264283      3.575030
  H      -9.220525     -4.067562      3.127498
  C      -8.092883     -5.767310      3.832186
  O      -7.450607     -3.874946      1.326003
  H      -7.138468     -5.992398      4.331284
  H      -8.905878     -6.153869      4.465081
  H      -8.113418     -6.326263      2.883828
15
Coordinates from ORCA-job inp E -271.040002149269
  C      -4.855652     -2.729721      2.234779
  C      -5.994625     -3.183882      3.105552
  H      -5.076597     -1.817938      1.644858
  H      -3.951649     -2.506195      2.820323
  H      -4.579818     -3.493382      1.483963
  C      -7.147222     -3.768053      2.604993
  H      -5.895735     -3.059502      4.186231
  H      -8.113495     -3.748798      4.570038
  C      -8.206294     -4.268320      3.602769
  H      -9.194399     -4.012928      3.181916
  C      -8.129037     -5.783118      3.808635
  O      -7.401527     -3.987418      1.351238
  H      -7.175356     -6.065038      4.280864
  H      -8.945538     -6.157867      4.444455
  H      -8.191027     -6.307306      2.842710
15
Coordinates from ORCA-job inp E -271.040475705791
  C      -4.857258     -2.707020      2.228004
  C      -5.992781     -3.155091      3.105842
  H      -5.099457     -1.833682      1.588733
  H      -3.970889     -2.422407      2.814981
  H      -4.541176     -3.498316      1.522232
  C      -7.113289     -3.806819      2.621564
  H      -5.919994     -2.965553      4.179964
  H      -8.033905     -3.788361      4.604962
  C      -8.175932     -4.275997      3.627060
  H      -9.160480     -3.960378      3.237231
  C      -8.168496     -5.799244      3.787830
  O      -7.341487     -4.093100      1.376856
  H      -7.219437     -6.139774      4.230892
  H      -8.988803     -6.156172      4.429757
  H      -8.274589     -6.287555      2.807416
15
Coordinates from ORCA-job inp E -271.040752735457
  C      -4.859858     -2.679927      2.219705
  C      -5.988045     -3.130923      3.106281
  H      -5.125824     -1.841630      1.543634
  H      -3.990739     -2.341278      2.804698
  H      -4.507599     -3.488148      1.551446
  C      -7.073899     -3.844427      2.636157
  H      -5.942729     -2.884192      4.170443
  H      -7.954716     -3.835387      4.632222
  C      -8.142522     -4.288521      3.645476
  H      -9.119489     -3.912988      3.289202
  C      -8.212602     -5.814901      3.771629
  O      -7.266174     -4.197958      1.401065
  H      -7.273985     -6.213883      4.187957
  H      -9.037829     -6.144520      4.421752
  H      -8.361962     -6.270782      2.781656
15
Coordinates from ORCA-job inp E -271.040823582685
  C      -4.862502     -2.656386      2.211550
  C      -5.975312     -3.125454      3.109074
  H      -5.158084     -1.838266      1.522491
  H      -4.005856     -2.280099      2.792859
  H      -4.483828     -3.466632      1.560568
  C      -7.035963     -3.881041      2.647430
  H      -5.951191     -2.841240      4.165468
  H      -7.902372     -3.869204      4.642574
  C      -8.116405     -4.301757      3.651307
  H      -9.084270     -3.884489      3.315613
  C      -8.249006     -5.825888      3.764901
  O      -7.201201     -4.262786      1.416141
  H      -7.323277     -6.267671      4.167181
  H      -9.079499     -6.123932      4.423752
  H      -8.429207     -6.264621      2.772413
15
Coordinates from ORCA-job inp E -271.040827946388
  C      -4.862257     -2.650602      2.210589
  C      -5.977750     -3.113827      3.108968
  H      -5.156868     -1.840295      1.513176
  H      -4.006950     -2.268196      2.789259
  H      -4.483825     -3.465889      1.567051
  C      -7.031741     -3.879846      2.649517
  H      -5.957656     -2.819260      4.161284
  H      -7.887361     -3.883446      4.650252
  C      -8.109267     -4.306287      3.656796
  H      -9.075385     -3.878302      3.330344
  C      -8.257201     -5.828538      3.760024
  O      -7.183042     -4.292319      1.424572
  H      -7.335146     -6.283175      4.155886
  H      -9.088142     -6.120101      4.420028
  H      -8.445383     -6.259383      2.765578
15
Coordinates from ORCA-job inp E -271.040848218780
  C      -4.861091     -2.655824      2.212651
  C      -5.977614     -3.121050      3.108576
  H      -5.152307     -1.835652      1.525033
  H      -4.002051     -2.285453      2.793687
  H      -4.489495     -3.466962      1.559592
  C      -7.039018     -3.874660      2.644719
  H      -5.952144     -2.838370      4.164463
  H      -7.903463     -3.870218      4.641722
  C      -8.116043     -4.303683      3.650646
  H      -9.085077     -3.888452      3.316364
  C      -8.248037     -5.826617      3.765107
  O      -7.201627     -4.264456      1.414395
  H      -7.322652     -6.269151      4.166954
  H      -9.077965     -6.121129      4.425483
  H      -8.429388     -6.267788      2.773930
15
Coordinates from ORCA-job inp E -271.040850220007
  C      -4.861083     -2.654643      2.212444
  C      -5.976721     -3.121367      3.108865
  H      -5.153576     -1.833261      1.526762
  H      -4.001475     -2.285271      2.793255
  H      -4.490791     -3.465096      1.557817
  C      -7.037199     -3.876367      2.645018
  H      -5.951939     -2.837379      4.164499
  H      -7.902805     -3.870400      4.640916
  C      -8.114896     -4.304550      3.649954
  H      -9.083704     -3.888661      3.315391
  C      -8.249107     -5.827078      3.765292
  O      -7.198865     -4.266168      1.414643
  H      -7.324516     -6.271486      4.167033
  H      -9.079303     -6.118633      4.426677
  H      -8.431992     -6.269107      2.774759
