16
tb_lite_results_shiftn0p15.json_gp432_b0_rot90 Î”E=-14.120 kcal/mol
C -6.296657 -3.525158 2.048291
C -6.015607 -4.021422 0.771357
O -9.368415 -5.315134 2.922480
H -7.645127 -3.560763 3.792439
C -6.863230 -5.009498 0.119362
H -5.128540 -3.674901 0.213588
C -8.011462 -5.417066 0.913182
O -6.621554 -5.478502 -1.044061
C -8.274421 -4.907347 2.192714
H -8.695077 -6.165938 0.472754
C -7.421001 -3.948724 2.787970
H -5.619465 -2.776983 2.496963
H -9.853135 -5.972586 2.385625
O -5.101738 -3.958686 -2.563877
H -5.655071 -4.512019 -2.010545
H -5.498955 -3.089598 -2.505966
