5
 energy: -7.103262762216 gnorm: 0.000353421074 xtb: 6.7.1 (edcfbbe)
C           -3.78696381972147       -1.77152401147711        1.77182503714414
S           -5.27448631268343       -2.41834334645955        2.56324595547246
H           -4.01660840249082       -1.40354855104370        0.76499371150396
H           -3.37003420958205       -0.94318115854239        2.35652130637662
H           -3.02453893578096       -2.55488001277856        1.68867682951251
