5
Coordinates from ORCA-job inp E -115.122581517226
  O      -1.213355      4.368378     -1.357016
  C      -1.478346      3.396874     -0.496545
  H      -2.307236      2.712836     -0.745997
  H      -0.672306      2.673214     -0.287238
  H      -1.758880      3.692313      0.528740
5
Coordinates from ORCA-job inp E -115.125574325710
  O      -1.209264      4.382986     -1.369661
  C      -1.478878      3.395118     -0.495241
  H      -2.333732      2.697537     -0.762064
  H      -0.642010      2.656772     -0.287599
  H      -1.766239      3.711202      0.556510
5
Coordinates from ORCA-job inp E -115.125732386438
  O      -1.208940      4.383872     -1.370329
  C      -1.479911      3.391445     -0.492100
  H      -2.339127      2.695990     -0.767218
  H      -0.634764      2.655044     -0.289375
  H      -1.767381      3.717263      0.560966
5
Coordinates from ORCA-job inp E -115.125786169145
  O      -1.209061      4.383157     -1.369658
  C      -1.481019      3.387484     -0.488641
  H      -2.341237      2.696438     -0.770505
  H      -0.631207      2.655441     -0.291203
  H      -1.767600      3.721095      0.561951
5
Coordinates from ORCA-job inp E -115.125801369551
  O      -1.209234      4.382408     -1.369024
  C      -1.481686      3.385085     -0.486502
  H      -2.341073      2.697443     -0.771506
  H      -0.630771      2.656461     -0.292168
  H      -1.767359      3.722219      0.561143
5
Coordinates from ORCA-job inp E -115.125803259766
  O      -1.209271      4.382280     -1.368947
  C      -1.481819      3.384600     -0.486045
  H      -2.340471      2.697897     -0.771270
  H      -0.631393      2.656932     -0.292255
  H      -1.767169      3.721907      0.560462
5
Coordinates from ORCA-job inp E -115.125803356234
  O      -1.209255      4.382362     -1.369034
  C      -1.481803      3.384652     -0.486082
  H      -2.340287      2.697943     -0.771087
  H      -0.631648      2.656980     -0.292176
  H      -1.767130      3.721678      0.560323
