23
 energy: -33.899558178427 gnorm: 0.000796347125 xtb: 6.7.1 (edcfbbe)
C           -7.43805526852030       -3.54636977632792       -3.11501223150313
C           -8.22334624660490       -3.46954567264060       -4.25938901849202
N           -5.80734196013615       -0.30036784269053       -3.04675378786988
H           -6.05981703988885       -2.55262143919609       -1.81940474744473
C           -8.20405521037535       -2.29422084145784       -4.99997311207806
H           -8.83118607174389       -4.31059682315028       -4.57202703827882
C           -7.44613083803098       -1.21833089292041       -4.60518746955421
H           -8.79937668257093       -2.22586664318252       -5.90642384720926
C           -6.65090166130052       -1.26145392571245       -3.43031149910907
H           -7.42836696705075       -0.31796968678686       -5.20732403598278
C           -6.66984502230417       -2.48176249823529       -2.71095729846580
H           -7.43611026910532       -4.46202343191607       -2.53049583001287
C           -5.97039589400627        1.00824129616986       -3.25124798020303
C           -7.22598544431063        1.66859980538667       -3.30074987427317
H           -4.03303490866729        3.81824429029256       -3.40100119728480
H           -3.85398428526021        1.37221973039591       -3.22814242112500
C           -7.31585001977998        3.03675121592539       -3.38847419807296
H           -8.12665443484355        1.06936867622603       -3.24339583141163
C           -6.17607463120578        3.82989367936267       -3.43554004535725
H           -8.29476829440591        3.50783382899543       -3.42022633094376
C           -4.93322576651822        3.21056558660808       -3.37299048588168
H           -6.25512658806443        4.90814318488856       -3.51182902809827
C           -4.82678498861998        1.84427110081464       -3.27957257927383
