11
tb_lite_results_shiftn0p1.json_gp338_b0_rot90 Î”E=-15.365 kcal/mol
C -5.330356 -3.648084 0.540344
C -6.354604 -4.236673 1.169829
O -8.316302 -5.550279 1.256227
H -5.190175 -3.783512 -0.535168
O -7.276321 -5.344927 -0.746662
C -7.395541 -5.115337 0.494266
H -4.609646 -3.020914 1.070343
H -6.489372 -4.093804 2.247402
O -9.499412 -6.406324 -1.808059
H -8.705119 -6.027095 -1.428830
H -10.064293 -6.580259 -1.054994
