11
tb_lite_results_shiftn0p15.json_gp314_b0_rot90 Î”E=-15.409 kcal/mol
C -5.330356 -3.648084 0.540344
C -6.354604 -4.236673 1.169829
O -8.316302 -5.550279 1.256227
H -5.190175 -3.783512 -0.535168
O -7.276321 -5.344927 -0.746662
C -7.395541 -5.115337 0.494266
H -4.609646 -3.020914 1.070343
H -6.489372 -4.093804 2.247402
O -9.093784 -7.162390 -1.315148
H -8.432085 -6.500691 -1.108174
H -9.458987 -7.409166 -0.465337
