14
 energy: -25.885418791152 gnorm: 0.000395899102 xtb: 6.7.1 (edcfbbe)
C           -4.17684220925399       -1.98852027672580        1.99269306877784
C           -3.84075749633905       -2.43809150120115        0.72843059143815
H           -6.97720806548843       -3.77345857360170        2.51078506914486
C           -5.30827996727169       -2.46888305706143        2.63820748496293
H           -3.57183740019717       -1.25577160993978        2.50941456780393
C           -4.63727333639686       -3.37785948648556        0.09334719473863
H           -2.95546791243875       -2.05910705924126        0.22910003294099
C           -5.76892221591828       -3.86363901713718        0.72921043571645
H           -4.37590930270825       -3.73191736490601       -0.89786099877300
C           -6.09956055060683       -3.41004105326539        1.99346845290390
H           -6.39103813852283       -4.59912546139994        0.23048273055042
C           -5.68501675384387       -1.95851394260792        4.06770743505609
O           -4.91216799219712       -1.11858050438496        4.55185626950075
O           -6.71435870605147       -2.45097691146450        4.55260213505732
