4
 energy: -16.015780776799 gnorm: 0.000201805284 xtb: 6.7.1 (edcfbbe)
C           -5.77897194981209       -2.76537038585568        2.58307192434361
Cl          -4.34840175830360       -1.78431234332299        2.52060250074577
Cl          -6.20707404073717       -3.76291273853769        1.22862434253921
Cl          -6.78148510279861       -2.74885646463501        3.99997322816238
