11
tb_lite_results_shiftn0p2.json_gp13_b0_rot270 Î”E=-20.660 kcal/mol
O -1.202848 4.436375 -1.396730
C -1.587435 3.422419 -0.576157
C -3.064071 2.991461 -0.744628
H -0.982341 2.468313 -0.702006
H -1.468886 3.650752 0.531070
H -3.244694 2.662794 -1.782269
H -3.341602 2.165671 -0.063968
H -3.731644 3.846765 -0.544609
O -1.680891 3.958332 -3.889065
H -1.503476 4.135747 -2.964090
H -0.830463 4.053838 -4.318136
