17
tb_lite_results_shiftn0p1.json_gp638_b0_rot180 Î”E=-13.117 kcal/mol
C -4.067769 -1.939725 1.937633
C -3.776839 -2.415330 0.681295
N -7.231645 -3.897670 2.622662
C -5.219820 -2.363852 2.716651
H -3.423879 -1.198345 2.417483
C -4.612231 -3.377288 0.058591
H -2.891264 -2.047973 0.155702
C -5.725686 -3.829344 0.733822
H -4.380069 -3.754412 -0.937779
C -6.052899 -3.356974 2.026908
H -6.387856 -4.567542 0.283411
O -5.421788 -1.884210 3.869478
O -7.897978 -4.761690 1.989635
O -7.595076 -3.516123 3.757441
O -7.644879 -0.822813 4.930874
H -6.850586 -1.202042 4.551646
H -8.209759 -1.575878 5.104809
