13
 energy: -19.067984122316 gnorm: 0.000470055539 xtb: 6.7.1 (edcfbbe)
H           -3.59125148251606        3.38886331344953       -1.05848549445010
C           -0.27068773394936        3.44414581712763       -0.20679965284703
C           -2.64462320883617        3.03078907837374       -0.66331076614446
H           -1.25776080639592        0.32810722519669        0.80168772286989
H            0.71941814418264        1.78112366206657        0.73069682731184
C           -2.56541315055748        1.75389628555571       -0.12237482029389
C           -1.54509131632989        3.85045231565483       -0.70757192683437
C           -1.33862757674666        1.32320680799598        0.37587160167522
H           -3.43464023923508        1.11088642859328       -0.08947513286607
C           -0.23034235890496        2.12746048128384        0.34011601799740
H           -1.62584452943050        4.84992853054913       -1.13569294670609
N            0.82876528443896        4.18254995624246       -0.21723354034300
H            0.63039282487872        5.09820405139453       -0.64187620353019
