9
 energy: -13.149156004571 gnorm: 0.000771847277 xtb: 6.7.1 (edcfbbe)
H           -5.18500761928502       -2.56127334286022       -0.94763927972328
C           -4.21612375968887       -2.40651214625705       -2.90668388417870
O           -3.03542734982347       -2.11110313998775       -2.40387306085448
H           -6.70124753374701       -0.64228515585225       -1.13986719365844
C           -5.27982409690395       -2.03275454820561       -1.89164198477889
C           -6.10271141061823       -0.99483210119823       -1.97472245869721
H           -6.20147581002329       -0.42768144054424       -2.88904565309892
H           -4.46781505513325       -1.87281087868371       -3.88369796805269
H           -4.35823735505303       -3.52255883686624       -3.16019270633552
