10
tb_lite_results_shiftn0p1.json_gp13_b0_rot270 Î”E=-12.795 kcal/mol
C -0.163273 -0.813049 1.584558
C -0.432540 -0.736378 -1.441902
Cl -1.758056 -1.303986 1.752692
H 0.596931 -1.566442 1.564931
H 0.053467 0.232431 1.659689
O -0.761593 0.358304 -1.395527
O -0.102224 -1.829785 -1.508670
O 0.373266 -1.349588 4.381872
H 0.195851 -1.172173 3.456897
H -0.477161 -1.597071 4.745156
