10
tb_lite_results_shiftn0p15.json_gp3_b0_rot270 Î”E=-12.629 kcal/mol
C -0.163273 -0.813049 1.584558
C -0.432540 -0.736378 -1.441902
Cl -1.758056 -1.303986 1.752692
H 0.596931 -1.566442 1.564931
H 0.053467 0.232431 1.659689
O -0.761593 0.358304 -1.395527
O -0.102224 -1.829785 -1.508670
O -0.163273 -0.813049 4.432956
H -0.163273 -0.813049 3.474556
H -1.090273 -0.813049 4.671956
