10
tb_lite_results_shiftn0p2.json_gp11_b0_rot270 Î”E=-12.550 kcal/mol
C -0.163273 -0.813049 1.584558
C -0.432540 -0.736378 -1.441902
Cl -1.758056 -1.303986 1.752692
H 0.596931 -1.566442 1.564931
H 0.053467 0.232431 1.659689
O -0.761593 0.358304 -1.395527
O -0.102224 -1.829785 -1.508670
O 0.354754 -0.295022 4.285360
H 0.177340 -0.472437 3.360385
H -0.495673 -0.047539 4.648644
