17
tb_lite_results_shiftn0p3.json_gp660_b0_rot180 Î”E=-20.872 kcal/mol
C -3.846648 -4.074910 1.871805
C -2.871424 -3.095172 2.590851
H -3.514755 -4.221570 0.830678
H -3.819002 -5.055329 2.375427
H -4.894459 -3.725466 1.855156
C -3.390210 -2.904572 4.046708
H -4.426767 -2.526663 4.102723
C -2.981365 -1.717105 1.872119
H -3.345642 -3.868172 4.580361
H -2.735376 -2.194050 4.577665
O -1.583929 -3.566880 2.575997
H -4.004872 -1.301751 1.861586
H -2.319539 -0.990693 2.372003
H -2.641267 -1.819837 0.828255
O -1.583929 -5.746820 3.763500
H -1.583929 -4.905192 3.305031
H -0.769875 -6.168831 3.488412
