!OPT PBE D3BJ CPCM(water)

*xyz -1 1
C     -5.801626   -3.942222    1.254807
C     -6.671146   -5.214846    1.061488
O     -6.401312   -3.191718    2.175912
H     -4.784742   -4.314745    1.451288
H     -5.692994   -3.515869    0.244442
H     -6.674306   -5.843958    1.959816
O     -8.017258   -4.820265    0.785148
H     -6.304031   -5.813876    0.221927
H     -8.032090   -3.976831    1.300754
*
