9
Coordinates from ORCA-job inp E -229.301348511591
  C      -5.801626     -3.942222      1.254807
  C      -6.671146     -5.214846      1.061488
  O      -6.401312     -3.191718      2.175912
  H      -4.784742     -4.314745      1.451288
  H      -5.692994     -3.515869      0.244442
  H      -6.674306     -5.843958      1.959816
  O      -8.017258     -4.820265      0.785148
  H      -6.304031     -5.813876      0.221927
  H      -8.032090     -3.976831      1.300754
9
Coordinates from ORCA-job inp E -229.308649492092
  C      -5.832706     -3.950591      1.260585
  C      -6.673835     -5.234058      1.035656
  O      -6.476105     -3.145594      2.126769
  H      -4.782304     -4.309913      1.527813
  H      -5.678996     -3.529718      0.206684
  H      -6.651542     -5.876377      1.951234
  O      -8.007244     -4.787673      0.809534
  H      -6.319844     -5.838704      0.165571
  H      -7.956927     -3.961702      1.371736
9
Coordinates from ORCA-job inp E -229.310474594961
  C      -5.851465     -3.958234      1.257112
  C      -6.679959     -5.247412      1.017101
  O      -6.546126     -3.134636      2.067286
  H      -4.802657     -4.290986      1.596192
  H      -5.649599     -3.546649      0.192305
  H      -6.614257     -5.904122      1.930275
  O      -8.008007     -4.773254      0.854442
  H      -6.352434     -5.842855      0.128771
  H      -7.875001     -3.936181      1.412097
9
Coordinates from ORCA-job inp E -229.311455201306
  C      -5.856934     -3.959241      1.251689
  C      -6.693172     -5.256025      1.006766
  O      -6.581218     -3.116877      2.018995
  H      -4.825700     -4.272026      1.652550
  H      -5.605634     -3.557226      0.188324
  H      -6.575276     -5.933144      1.904827
  O      -8.024287     -4.783986      0.898270
  H      -6.387648     -5.837695      0.103019
  H      -7.829637     -3.918110      1.431141
9
Coordinates from ORCA-job inp E -229.312005331347
  C      -5.852565     -3.957591      1.240544
  C      -6.703845     -5.258155      1.001033
  O      -6.607306     -3.095631      1.958643
  H      -4.854011     -4.257775      1.702754
  H      -5.547516     -3.577526      0.188593
  H      -6.542305     -5.958493      1.873506
  O      -8.037772     -4.796400      0.938773
  H      -6.414518     -5.820101      0.080838
  H      -7.819667     -3.912657      1.470899
9
Coordinates from ORCA-job inp E -229.312157129648
  C      -5.855716     -3.957092      1.234437
  C      -6.714714     -5.268423      1.005041
  O      -6.633405     -3.091577      1.933718
  H      -4.881884     -4.244411      1.734006
  H      -5.521209     -3.583407      0.198034
  H      -6.506827     -5.990309      1.848466
  O      -8.043498     -4.815650      0.993481
  H      -6.443680     -5.808918      0.065404
  H      -7.778572     -3.874542      1.442994
9
Coordinates from ORCA-job inp E -229.312358845692
  C      -5.855158     -3.955191      1.230893
  C      -6.714737     -5.267065      1.002407
  O      -6.638338     -3.077207      1.911405
  H      -4.887504     -4.244530      1.743446
  H      -5.509644     -3.594071      0.196969
  H      -6.511328     -5.992909      1.842661
  O      -8.041163     -4.814112      0.992665
  H      -6.440550     -5.801866      0.059149
  H      -7.781083     -3.887378      1.475987
9
Coordinates from ORCA-job inp E -229.312384415057
  C      -5.854260     -3.954991      1.230686
  C      -6.714653     -5.267255      1.003305
  O      -6.638489     -3.073937      1.908410
  H      -4.886139     -4.247034      1.744915
  H      -5.509768     -3.596813      0.196968
  H      -6.510820     -5.995891      1.841503
  O      -8.041827     -4.816722      0.996282
  H      -6.437579     -5.797617      0.057299
  H      -7.785970     -3.884071      1.476212
9
Coordinates from ORCA-job inp E -229.312395329296
  C      -5.855564     -3.955084      1.229820
  C      -6.715701     -5.269165      1.003657
  O      -6.645923     -3.070431      1.898559
  H      -4.890447     -4.246475      1.751978
  H      -5.507225     -3.601215      0.197381
  H      -6.508162     -6.002855      1.836957
  O      -8.041062     -4.818085      1.005914
  H      -6.438049     -5.792042      0.052777
  H      -7.777371     -3.878979      1.478539
9
Coordinates from ORCA-job inp E -229.312397051992
  C      -5.855662     -3.954879      1.230175
  C      -6.716362     -5.269382      1.003942
  O      -6.644307     -3.068691      1.898721
  H      -4.890757     -4.246502      1.752013
  H      -5.507219     -3.601329      0.197338
  H      -6.508322     -6.003646      1.836587
  O      -8.042010     -4.819708      1.006443
  H      -6.437561     -5.790978      0.052820
  H      -7.777305     -3.879216      1.477543
9
Coordinates from ORCA-job inp E -229.312397905241
  C      -5.855582     -3.955113      1.230332
  C      -6.716144     -5.269294      1.003937
  O      -6.644375     -3.069896      1.899157
  H      -4.890448     -4.246380      1.751527
  H      -5.507533     -3.601210      0.197040
  H      -6.508559     -6.003178      1.836941
  O      -8.042026     -4.819184      1.006025
  H      -6.437170     -5.791089      0.053142
  H      -7.777667     -3.878987      1.477481
