12
 energy: -18.928900191303 gnorm: 0.000316040431 xtb: 6.7.1 (edcfbbe)
C           -3.23057516386973       -2.28106448092568        0.62622810736201
C           -2.72310521758528       -3.14579876986328       -0.31850439433533
C           -3.40665384981987       -4.30543704386402       -0.65418866450420
C           -4.61146457304085       -4.58562561593193       -0.02600237987644
C           -5.12575071538891       -3.72618031675982        0.91986851927755
H           -1.78215617099930       -2.91257197901909       -0.79934069082425
C           -4.44641103176891       -2.55083604455422        1.27006364868151
H           -3.00601548205857       -4.98134631390640       -1.39495845097345
H           -2.70258944636198       -1.37340299094902        0.89359116014964
H           -6.06600119086124       -3.93814701927243        1.41495990089895
S           -5.08590412344354       -1.47135742189079        2.45569311482810
H           -5.15716609256328       -5.48584593768002       -0.27656847449539
