6
 energy: -10.021299776334 gnorm: 0.000487355263 xtb: 6.7.1 (edcfbbe)
C           -6.28094009857167       -4.18010150101867        0.83135880741001
C           -7.35033470908893       -4.58925734565546        1.55359244179960
H           -6.15967980852883       -4.46241915083860       -0.20790095937379
H           -5.50589134860828       -3.55751660108570        1.25759532278007
O           -7.65244682486849       -4.36140365062994        2.75842299923896
H           -8.07431342808142       -5.23915847230798        0.95745364648097
