13
Coordinates from ORCA-job inp E -381.930924557422
  C      -6.320958     -3.546488      2.042860
  C      -6.002477     -4.021951      0.755411
  O      -9.379714     -5.321527      2.924900
  H      -7.635288     -3.574428      3.752392
  C      -6.903922     -4.972822      0.240816
  O      -4.980161     -3.624213      0.106552
  C      -8.032560     -5.420423      0.941757
  H      -9.847623     -5.970252      2.376807
  C      -8.292321     -4.914254      2.206168
  H      -8.676217     -6.154566      0.474370
  C      -7.442961     -3.977171      2.765560
  H      -5.660412     -2.808031      2.495438
  H      -6.708965     -5.376871     -0.751884
13
Coordinates from ORCA-job inp E -381.934420745307
  C      -6.314139     -3.536946      2.051189
  C      -5.983178     -4.013334      0.744629
  O      -9.403560     -5.330101      2.941176
  H      -7.638870     -3.571859      3.761890
  C      -6.900653     -4.978470      0.226180
  O      -4.944107     -3.607511      0.088182
  C      -8.028296     -5.422447      0.932088
  H      -9.887896     -5.984113      2.405572
  C      -8.299603     -4.919158      2.207204
  H      -8.684101     -6.164220      0.467155
  C      -7.438668     -3.973906      2.766161
  H      -5.653754     -2.794561      2.510887
  H      -6.706755     -5.386371     -0.771168
13
Coordinates from ORCA-job inp E -381.934700895916
  C      -6.312926     -3.534756      2.054593
  C      -5.977697     -4.011114      0.741755
  O      -9.409577     -5.331036      2.946588
  H      -7.642793     -3.575099      3.760712
  C      -6.899667     -4.980898      0.220992
  O      -4.935046     -3.601860      0.084046
  C      -8.024470     -5.421665      0.928194
  H      -9.897838     -5.986121      2.415978
  C      -8.301397     -4.921169      2.205641
  H      -8.686706     -6.164234      0.470081
  C      -7.436633     -3.974034      2.763423
  H      -5.653399     -2.792189      2.515523
  H      -6.705430     -5.388822     -0.776379
13
Coordinates from ORCA-job inp E -381.934736381375
  C      -6.312796     -3.534355      2.055608
  C      -5.976944     -4.010441      0.741120
  O      -9.410123     -5.330218      2.947766
  H      -7.645804     -3.578083      3.759416
  C      -6.899220     -4.981619      0.219406
  O      -4.934153     -3.600586      0.084066
  C      -8.022596     -5.420943      0.927018
  H      -9.898867     -5.985885      2.418283
  C      -8.301650     -4.921827      2.204475
  H      -8.688807     -6.163538      0.474129
  C      -7.435861     -3.974522      2.761677
  H      -5.652874     -2.792059      2.515912
  H      -6.703885     -5.388921     -0.777728
13
Coordinates from ORCA-job inp E -381.934748604428
  C      -6.312719     -3.534271      2.056027
  C      -5.976811     -4.010593      0.741210
  O      -9.409605     -5.329245      2.947754
  H      -7.648657     -3.580583      3.758679
  C      -6.898822     -4.981908      0.218696
  O      -4.934973     -3.600161      0.084723
  C      -8.021580     -5.420481      0.926483
  H      -9.897991     -5.985505      2.418575
  C      -8.301629     -4.922148      2.203680
  H      -8.691196     -6.162948      0.478108
  C      -7.435492     -3.974844      2.760670
  H      -5.651925     -2.792089      2.514948
  H      -6.702178     -5.388222     -0.778406
13
Coordinates from ORCA-job inp E -381.934750769283
  C      -6.312735     -3.534208      2.055988
  C      -5.977252     -4.010463      0.741211
  O      -9.409122     -5.328929      2.947276
  H      -7.649791     -3.581430      3.758806
  C      -6.898757     -4.981801      0.218634
  O      -4.935419     -3.600558      0.085258
  C      -8.021590     -5.420410      0.926386
  H      -9.897058     -5.985587      2.418134
  C      -8.301586     -4.922043      2.203500
  H      -8.692384     -6.162872      0.479701
  C      -7.435500     -3.974760      2.760673
  H      -5.651132     -2.792211      2.514031
  H      -6.701254     -5.387725     -0.778451
13
Coordinates from ORCA-job inp E -381.934751200856
  C      -6.312720     -3.534222      2.055969
  C      -5.977215     -4.010825      0.741457
  O      -9.408947     -5.328836      2.946885
  H      -7.650269     -3.581562      3.759030
  C      -6.898746     -4.981768      0.218708
  O      -4.935653     -3.600635      0.085365
  C      -8.021754     -5.420472      0.926345
  H      -9.896611     -5.985821      2.417900
  C      -8.301493     -4.921941      2.203522
  H      -8.692982     -6.162828      0.480154
  C      -7.435527     -3.974614      2.760902
  H      -5.650750     -2.792141      2.513396
  H      -6.700911     -5.387333     -0.778485
