15
 energy: -29.501397608663 gnorm: 0.000268091803 xtb: 6.7.1 (edcfbbe)
C           -2.04656207620856       -2.82022748958751        1.56043122118425
C           -2.54206247251157       -2.17133931664601        0.37642835661794
C           -3.71288602922336       -2.52896808431478       -0.20142503508832
C           -4.50752084434425       -3.56747867302152        0.34084491166237
C           -4.05021574757609       -4.22762676799547        1.50354215873018
C           -2.87908899742565       -3.87398042722657        2.08594210607938
O           -6.37359903361863       -4.84423173549064        0.25240988378219
H           -2.53697896116258       -4.38776095325418        2.97926274924768
H           -1.93462232972333       -1.37863248250196       -0.03668777266976
H           -4.07498265567415       -2.03395525006797       -1.09200287686689
N           -5.69410823531070       -3.92585958799725       -0.24743717243938
H           -4.66492856275875       -5.02031681649524        1.90880834516892
O           -6.07532396763063       -3.32903985497548       -1.27321911598734
N           -0.91545162382446       -2.42869160109001        2.06851491140183
H           -0.67033981386471       -2.96287221717335        2.90583960761637
