12
tb_lite_results_shiftn0p2.json_gp342_b0_rot90 Î”E=-20.383 kcal/mol
C -7.044827 -4.557760 1.575720
C -8.048166 -3.406298 1.578073
O -7.537536 -5.764313 1.037441
H -6.126851 -4.253234 1.028083
H -6.754879 -4.805256 2.615832
O -7.704286 -5.590809 -0.434834
H -8.350020 -3.168812 0.549043
H -8.947244 -3.675585 2.153996
H -7.605409 -2.505202 2.030167
O -8.182328 -8.083143 -0.912877
H -8.004914 -7.158168 -0.735462
H -8.398173 -8.453556 -0.056924
