8
tb_lite_results_shiftn0p1.json_gp168_b0_rot270 Î”E=-12.419 kcal/mol
C -3.790139 -1.773335 1.772672
S -5.310272 -2.433502 2.583101
H -4.002128 -1.397846 0.759329
H -3.358127 -0.939684 2.348329
H -3.011950 -2.547227 1.681748
O -3.866364 -2.433502 5.233734
H -4.324833 -2.433502 4.392107
H -4.566087 -2.433502 5.887062
