8
tb_lite_results_shiftn0p1.json_gp181_b0_rot90 Î”E=-12.435 kcal/mol
C -3.790139 -1.773335 1.772672
S -5.310272 -2.433502 2.583101
H -4.002128 -1.397846 0.759329
H -3.358127 -0.939684 2.348329
H -3.011950 -2.547227 1.681748
O -5.310272 -5.084136 1.139193
H -5.310272 -4.242508 1.597662
H -5.753720 -5.683433 1.739731
