8
tb_lite_results_shiftn0p1.json_gp162_b0_rot180 Î”E=-12.462 kcal/mol
C -3.790139 -1.773335 1.772672
S -5.310272 -2.433502 2.583101
H -4.002128 -1.397846 0.759329
H -3.358127 -0.939684 2.348329
H -3.011950 -2.547227 1.681748
O -6.754181 0.217131 2.583101
H -6.295712 -0.624497 2.583101
H -7.682564 -0.016437 2.583101
