8
tb_lite_results_shiftn0p1.json_gp151_b0_rot0 Î”E=-12.442 kcal/mol
C -3.790139 -1.773335 1.772672
S -5.310272 -2.433502 2.583101
H -4.002128 -1.397846 0.759329
H -3.358127 -0.939684 2.348329
H -3.011950 -2.547227 1.681748
O -4.115924 -4.935060 3.777449
H -4.495153 -4.140767 3.398221
H -4.789624 -5.259765 4.375066
