8
tb_lite_results_shiftn0p05.json_gp148_b0_rot90 Î”E=-12.443 kcal/mol
C -3.790139 -1.773335 1.772672
S -5.310272 -2.433502 2.583101
H -4.002128 -1.397846 0.759329
H -3.358127 -0.939684 2.348329
H -3.011950 -2.547227 1.681748
O -6.524405 -3.647635 0.040105
H -6.145176 -3.268406 0.834398
H -7.387245 -3.960016 0.312825
