!OPT PBE D3BJ CPCM(water)

*xyz -1 1
C     -3.691047   -3.973273   -2.681870
C     -4.268314   -2.637389   -3.179186
O     -3.308160   -1.731517   -3.115055
H     -6.197484   -2.945431   -2.218604
C     -5.402015   -2.190939   -2.240802
H     -4.747345   -2.858607   -4.143619
H     -5.854831   -1.250116   -2.578986
H     -5.060765   -2.046897   -1.207183
H     -3.281661   -3.902541   -1.665523
H     -4.471977   -4.742944   -2.665175
H     -2.891672   -4.334652   -3.341391
*
