11
Coordinates from ORCA-job inp E -193.429552213259
  C      -3.691047     -3.973273     -2.681870
  C      -4.268314     -2.637389     -3.179186
  O      -3.308160     -1.731517     -3.115055
  H      -6.197484     -2.945431     -2.218604
  C      -5.402015     -2.190939     -2.240802
  H      -4.747345     -2.858607     -4.143619
  H      -5.854831     -1.250116     -2.578986
  H      -5.060765     -2.046897     -1.207183
  H      -3.281661     -3.902541     -1.665523
  H      -4.471977     -4.742944     -2.665175
  H      -2.891672     -4.334652     -3.341391
11
Coordinates from ORCA-job inp E -193.439502014618
  C      -3.696087     -3.991181     -2.676694
  C      -4.236462     -2.612287     -3.157778
  O      -3.265239     -1.678200     -3.171653
  H      -6.239654     -2.958387     -2.208169
  C      -5.418932     -2.196720     -2.232301
  H      -4.742715     -2.850746     -4.159224
  H      -5.863099     -1.240933     -2.579965
  H      -5.067578     -2.045530     -1.190463
  H      -3.277031     -3.912943     -1.651964
  H      -4.484887     -4.785939     -2.662412
  H      -2.883587     -4.341438     -3.346771
11
Coordinates from ORCA-job inp E -193.440629857857
  C      -3.703195     -3.998042     -2.674915
  C      -4.226562     -2.605312     -3.147949
  O      -3.262585     -1.669976     -3.194763
  H      -6.254239     -2.955247     -2.206863
  C      -5.425747     -2.203927     -2.230738
  H      -4.741140     -2.848384     -4.162600
  H      -5.853568     -1.237644     -2.576740
  H      -5.063754     -2.052559     -1.188256
  H      -3.282702     -3.909851     -1.647238
  H      -4.482533     -4.800574     -2.664862
  H      -2.879246     -4.332789     -3.342469
11
Coordinates from ORCA-job inp E -193.440845440611
  C      -3.706345     -4.002046     -2.674421
  C      -4.223909     -2.603855     -3.143696
  O      -3.267806     -1.672279     -3.204058
  H      -6.262473     -2.949639     -2.207655
  C      -5.429744     -2.207070     -2.230233
  H      -4.743025     -2.849688     -4.164710
  H      -5.843098     -1.233022     -2.572470
  H      -5.060888     -2.057408     -1.188747
  H      -3.286755     -3.906966     -1.645820
  H      -4.477836     -4.808437     -2.668203
  H      -2.873393     -4.323897     -3.337380
11
Coordinates from ORCA-job inp E -193.440872522374
  C      -3.706605     -4.003083     -2.674490
  C      -4.224158     -2.604068     -3.143772
  O      -3.271038     -1.675050     -3.204326
  H      -6.264512     -2.947480     -2.208557
  C      -5.430772     -2.207319     -2.230188
  H      -4.745445     -2.851856     -4.165740
  H      -5.838468     -1.230474     -2.570402
  H      -5.059976     -2.058805     -1.189279
  H      -3.287904     -3.905915     -1.645776
  H      -4.476115     -4.810158     -2.669749
  H      -2.870277     -4.320097     -3.335115
11
Coordinates from ORCA-job inp E -193.440878380265
  C      -3.706348     -4.003345     -2.674566
  C      -4.224449     -2.604126     -3.144607
  O      -3.272251     -1.676315     -3.203393
  H      -6.264819     -2.946983     -2.209254
  C      -5.431018     -2.207077     -2.230159
  H      -4.747347     -2.853726     -4.166023
  H      -5.836471     -1.229130     -2.569468
  H      -5.059775     -2.059258     -1.189459
  H      -3.288253     -3.905633     -1.645806
  H      -4.475857     -4.810222     -2.670482
  H      -2.868682     -4.318490     -3.334176
11
Coordinates from ORCA-job inp E -193.440879181247
  C      -3.706143     -4.003373     -2.674550
  C      -4.224429     -2.603998     -3.145013
  O      -3.272209     -1.676303     -3.203186
  H      -6.264641     -2.947116     -2.209594
  C      -5.431024     -2.206898     -2.230089
  H      -4.748068     -2.854541     -4.165770
  H      -5.836148     -1.228788     -2.569331
  H      -5.059927     -2.059346     -1.189344
  H      -3.288297     -3.905788     -1.645722
  H      -4.476081     -4.809925     -2.670717
  H      -2.868302     -4.318232     -3.334078
