4
 energy: -11.107832700333 gnorm: 0.000316054392 xtb: 6.7.1 (edcfbbe)
C           -3.13768690049112        2.37449475300807       -0.00000301164567
O           -3.33128342341846        3.58743597855130        0.00000657380145
O           -2.09041067773920        1.73267795868394       -0.00000230837335
H           -4.11321469517193        1.72166166335576       -0.00001445228267
