11
 energy: -13.474907389434 gnorm: 0.000469796338 xtb: 6.7.1 (edcfbbe)
C           -3.75217140606860        2.01284889989899        0.47233040243080
C           -0.14290158217840        1.21199376753263       -0.44851416926503
H           -1.13840400690525        0.76391785896401       -0.48677471888143
H           -3.40109240209769        2.22481982053424        1.46876474567694
H           -3.83003866296903        2.86662668495805       -0.18042339935808
S           -0.27233244161321        2.91167323025865        0.15276453437862
H            0.49212913578009        0.63286672192472        0.22587467873461
H            0.29677420812352        1.21004358504843       -1.44878210223916
C           -4.01067791715199        0.78835444522560        0.06243289099363
H           -3.90245286622053       -0.06404262710839        0.71324343733361
H           -4.33222322786646        0.58187351862101       -0.94535297256508
