17
tb_lite_results_shiftn0p2.json_gp393_b0_rot90 Î”E=-12.598 kcal/mol
C -2.067153 -2.835863 1.561484
C -2.502470 -2.173604 0.416490
C -3.705191 -2.509752 -0.213740
C -4.448586 -3.547116 0.366867
C -4.047181 -4.233343 1.510264
C -2.814659 -3.907055 2.178276
O -2.416835 -4.518129 3.232755
H -1.121830 -2.548563 2.030432
H -1.891809 -1.370100 -0.002989
H -4.057042 -2.001312 -1.107408
N -5.718240 -3.927543 -0.267299
H -4.671077 -5.031427 1.911464
O -6.077291 -3.325085 -1.291896
O -6.390325 -4.837936 0.241288
O -0.276621 -3.496301 4.254583
H -1.070914 -3.875530 3.875354
H 0.288259 -4.249366 4.428518
