17
tb_lite_results_shiftn0p05.json_gp393_b0_rot180 Î”E=-12.706 kcal/mol
C -2.067153 -2.835863 1.561484
C -2.502470 -2.173604 0.416490
C -3.705191 -2.509752 -0.213740
C -4.448586 -3.547116 0.366867
C -4.047181 -4.233343 1.510264
C -2.814659 -3.907055 2.178276
O -2.416835 -4.518129 3.232755
H -1.121830 -2.548563 2.030432
H -1.891809 -1.370100 -0.002989
H -4.057042 -2.001312 -1.107408
N -5.718240 -3.927543 -0.267299
H -4.671077 -5.031427 1.911464
O -6.077291 -3.325085 -1.291896
O -6.390325 -4.837936 0.241288
O -0.152306 -3.436947 4.313936
H -0.946599 -3.816176 3.934708
H -0.321034 -3.421743 5.256141
