!OPT PBE D3BJ def2-TZVP CPCM(water)

* xyz -1 1
C     -3.038570    1.741585   -0.000011
C     -3.034831    0.338745    0.000001
H      0.272941    2.311907   -0.000038
O     -1.878865    3.792059   -0.000036
C     -1.830447   -0.351899   -0.000001
H     -3.978064   -0.195427    0.000011
C     -0.642529    0.366696   -0.000015
H     -1.817791   -1.435171    0.000007
C     -0.671568    1.769240   -0.000027
H      0.312927   -0.145292   -0.000016
C     -1.863969    2.517112   -0.000025
H     -3.995501    2.262035   -0.000008
*
