12
Coordinates from ORCA-job inp E -306.745109020575
  C      -3.038570      1.741585     -0.000011
  C      -3.034831      0.338745      0.000001
  H       0.272941      2.311907     -0.000038
  O      -1.878865      3.792059     -0.000036
  C      -1.830447     -0.351899     -0.000001
  H      -3.978064     -0.195427      0.000011
  C      -0.642529      0.366696     -0.000015
  H      -1.817791     -1.435171      0.000007
  C      -0.671568      1.769240     -0.000027
  H       0.312927     -0.145292     -0.000016
  C      -1.863969      2.517112     -0.000025
  H      -3.995501      2.262035     -0.000008
12
Coordinates from ORCA-job inp E -306.747669115756
  C      -3.057374      1.739189     -0.000011
  C      -3.043288      0.340150      0.000001
  H       0.297698      2.312020     -0.000038
  O      -1.879184      3.818147     -0.000036
  C      -1.830371     -0.358770     -0.000001
  H      -3.992382     -0.201982      0.000012
  C      -0.634083      0.368271     -0.000015
  H      -1.817632     -1.450968      0.000007
  C      -0.652712      1.767245     -0.000027
  H       0.327429     -0.151514     -0.000017
  C      -1.864091      2.528251     -0.000025
  H      -4.020276      2.261550     -0.000008
12
Coordinates from ORCA-job inp E -306.747933722473
  C      -3.064661      1.737582     -0.000011
  C      -3.044094      0.342121      0.000001
  H       0.303673      2.313020     -0.000038
  O      -1.879363      3.823870     -0.000037
  C      -1.830334     -0.362653     -0.000001
  H      -3.992760     -0.203559      0.000012
  C      -0.633290      0.370237     -0.000015
  H      -1.817636     -1.454992      0.000007
  C      -0.645328      1.765817     -0.000027
  H       0.327856     -0.153139     -0.000017
  C      -1.864109      2.530904     -0.000025
  H      -4.026221      2.262381     -0.000008
12
Coordinates from ORCA-job inp E -306.747971659991
  C      -3.066578      1.737111     -0.000011
  C      -3.043066      0.343124      0.000001
  H       0.303604      2.315276     -0.000037
  O      -1.879429      3.823462     -0.000036
  C      -1.830312     -0.364595     -0.000001
  H      -3.990828     -0.204637      0.000012
  C      -0.634328      0.371210     -0.000015
  H      -1.817645     -1.456243      0.000007
  C      -0.643364      1.765402     -0.000027
  H       0.325945     -0.154293     -0.000017
  C      -1.864102      2.531139     -0.000025
  H      -4.026166      2.264634     -0.000008
12
Coordinates from ORCA-job inp E -306.747981521817
  C      -3.066896      1.736985     -0.000011
  C      -3.042155      0.343518      0.000001
  H       0.302199      2.317715     -0.000038
  O      -1.879442      3.822066     -0.000037
  C      -1.830297     -0.365577     -0.000001
  H      -3.989162     -0.205739      0.000012
  C      -0.635248      0.371588     -0.000015
  H      -1.817642     -1.456777      0.000007
  C      -0.643031      1.765290     -0.000027
  H       0.324298     -0.155442     -0.000017
  C      -1.864094      2.530848     -0.000025
  H      -4.024797      2.267114     -0.000009
12
Coordinates from ORCA-job inp E -306.747982971304
  C      -3.066702      1.736946     -0.000011
  C      -3.042007      0.343465      0.000001
  H       0.301275      2.318918     -0.000037
  O      -1.879430      3.821414     -0.000036
  C      -1.830294     -0.365637     -0.000001
  H      -3.988686     -0.206371      0.000012
  C      -0.635400      0.371537     -0.000015
  H      -1.817637     -1.456780      0.000007
  C      -0.643228      1.765249     -0.000027
  H       0.323833     -0.156078     -0.000017
  C      -1.864091      2.530579     -0.000026
  H      -4.023899      2.268349     -0.000008
