9
 energy: -14.248460691981 gnorm: 0.000477852639 xtb: 6.7.1 (edcfbbe)
C           -4.10305835604023        0.63207949244115        0.09640923200998
S           -2.45358291655680        1.55277433741774        0.38834385680525
H           -4.12362324884188        0.30805403488115       -0.93802435507073
H           -4.11754806041430       -0.22487332139293        0.76267521192768
H           -4.93390986702510        1.29951834236903        0.31376346536248
C           -1.41284827271298        0.28361074879805       -0.22003241054776
H           -1.09159442001993       -0.27353852343529        0.68401823779752
O           -2.46551377218005        2.64905737123463       -0.63947958467803
H           -0.52348299885304        0.78571428179428       -0.62785983976433
