9
 energy: -13.190440739657 gnorm: 0.000370516374 xtb: 6.7.1 (edcfbbe)
C           -3.80094740705693       -0.62111454224512       -0.74825489654009
C           -2.71713614115743        0.19378266772886       -0.79457629031818
C           -1.39986801894606       -0.38746220010142       -0.21116684657855
O           -2.65925201836217        1.37325278283439       -1.25940702416490
H           -3.75719819091013       -1.61930749702620       -0.33044842426904
H           -4.76134112289617       -0.30443305240210       -1.13001654228114
H           -1.53403486899741       -1.40151307501013        0.16624070883957
H           -0.62846589688665       -0.39625188180398       -0.98415337954530
H           -1.04619695968769        0.24948939906937        0.60237863727480
