9
tb_lite_results_shiftn0p25.json_gp280_b0_rot0 Î”E=-16.908 kcal/mol
C -6.268289 -4.175343 0.820124
C -7.361164 -4.597332 1.550071
H -6.161120 -4.470126 -0.225943
H -5.490875 -3.545588 1.265728
O -7.665042 -4.362584 2.778344
H -8.077003 -5.239110 0.962010
O -6.202961 -2.900504 4.240425
H -6.756293 -3.453836 3.687092
H -5.529770 -2.566619 3.647310
