9
tb_lite_results_shiftn0p15.json_gp280_b0_rot0 Î”E=-17.101 kcal/mol
C -6.268289 -4.175343 0.820124
C -7.361164 -4.597332 1.550071
H -6.161120 -4.470126 -0.225943
H -5.490875 -3.545588 1.265728
O -7.665042 -4.362584 2.778344
H -8.077003 -5.239110 0.962010
O -6.145226 -2.842769 4.298160
H -6.698558 -3.396101 3.744827
H -5.472035 -2.508884 3.705045
