9
tb_lite_results_shiftn0p1.json_gp325_b0_rot0 Î”E=-16.737 kcal/mol
C -6.268289 -4.175343 0.820124
C -7.361164 -4.597332 1.550071
H -6.161120 -4.470126 -0.225943
H -5.490875 -3.545588 1.265728
O -7.665042 -4.362584 2.778344
H -8.077003 -5.239110 0.962010
O -6.603645 -2.139493 3.839741
H -6.982874 -2.933786 3.460512
H -5.740805 -2.068046 3.431264
