9
tb_lite_results_shiftn0p15.json_gp325_b0_rot0 Î”E=-16.916 kcal/mol
C -6.268289 -4.175343 0.820124
C -7.361164 -4.597332 1.550071
H -6.161120 -4.470126 -0.225943
H -5.490875 -3.545588 1.265728
O -7.665042 -4.362584 2.778344
H -8.077003 -5.239110 0.962010
O -6.623429 -2.180932 3.819956
H -7.002658 -2.975225 3.440727
H -5.760590 -2.109485 3.411480
