9
tb_lite_results_shiftn0p2.json_gp311_b0_rot90 Î”E=-16.612 kcal/mol
C -6.268289 -4.175343 0.820124
C -7.361164 -4.597332 1.550071
H -6.161120 -4.470126 -0.225943
H -5.490875 -3.545588 1.265728
O -7.665042 -4.362584 2.778344
H -8.077003 -5.239110 0.962010
O -5.882100 -3.804897 4.561286
H -6.543799 -4.011870 3.899586
H -5.077069 -4.199751 4.225927
