6
 energy: -11.876702547304 gnorm: 0.000138931798 xtb: 6.7.1 (edcfbbe)
C           -7.13941843846888       -4.41977133316183        1.58973931533132
H           -7.87474892546393       -3.59384658756768        1.54350640547585
O           -7.62200423852740       -5.58571769682436        1.05091570169459
H           -6.22186911529844       -4.06496287145465        1.08257633076613
H           -6.90072424470963       -4.61866410305384        2.64897685851026
O           -7.94284228603039       -5.35250436187772       -0.33796583145033
