9
 energy: -13.261436994099 gnorm: 0.000780660213 xtb: 6.7.1 (edcfbbe)
H           -5.13717759011485       -2.51325458670053       -0.91129072692918
C           -4.22062547931732       -2.38900766909260       -2.88647300769813
O           -2.95789593429620       -2.23939470072648       -2.46842508314630
H           -6.77813281056921       -0.70478231420540       -1.18194941307690
C           -5.24604104490182       -1.98160937591726       -1.84880783610675
C           -6.12087012915282       -1.00236168145889       -1.98342010642109
H           -6.20595235880358       -0.45983468979878       -2.91139312198764
H           -4.43204130282120       -1.80599162679694       -3.83745942131211
H           -4.44913334029913       -3.47557494575843       -3.16814547270001
