12
tb_lite_results_shiftn0p2.json_gp260_b0_rot180 Î”E=-16.952 kcal/mol
C -3.827604 -0.634648 -0.747362
C -2.705186 0.175595 -0.785450
C -1.398744 -0.385712 -0.211585
O -2.643537 1.376485 -1.260612
H -3.788970 -1.642331 -0.330125
H -4.784175 -0.280386 -1.143426
H -1.498090 -1.410047 0.176593
H -0.617844 -0.378458 -0.989937
H -1.040260 0.265835 0.602417
O -4.426479 1.934173 -3.043554
H -3.764779 1.727200 -2.381854
H -4.791682 1.084362 -3.290329
