8
tb_lite_results_shiftn0p25.json_gp61_b0_rot270 Î”E=-20.416 kcal/mol
O -1.209255 4.382363 -1.369034
C -1.481803 3.384652 -0.486082
H -2.340287 2.697943 -0.771087
H -0.631648 2.656980 -0.292176
H -1.767130 3.721678 0.560323
O -3.308031 5.384406 -2.371078
H -2.513738 5.005177 -1.991849
H -3.139303 5.399610 -3.313282
