15
 energy: -22.870474707497 gnorm: 0.000816348074 xtb: 6.7.1 (edcfbbe)
C           -4.19040647487319       -4.15348770728196       -3.25007358670355
C           -2.89300941621997       -4.63462865470894       -3.21857429245387
H           -3.78748744588431       -1.34338055449329       -1.44616909509869
C           -4.52719976121434       -2.96981182220400       -2.60556977784212
H           -4.96339050376975       -4.69262581083411       -3.78196876205004
C           -1.90859047977112       -3.93509198510727       -2.54198329286750
H           -2.65375038056289       -5.55938680777085       -3.72315165231299
C           -2.23014890890218       -2.74937394125126       -1.90301756705463
H           -0.89673786403991       -4.31004469228989       -2.51436581958940
C           -3.52842198904454       -2.27254334520961       -1.93646922481576
H           -1.47001035535230       -2.19313399585691       -1.37408142664930
C           -5.92570385966975       -2.38429414715223       -2.72603827062534
H           -6.65881838818730       -3.25317759257036       -2.82643020272985
H           -6.19254180397013       -1.91770839417342       -1.71694924855524
O           -6.04445322353390       -1.50934712257190       -3.73004621161008
