14
 energy: -17.373034498003 gnorm: 0.000509605010 xtb: 6.7.1 (edcfbbe)
C           -3.77225312340806       -3.91842448988635       -2.81631227686048
C           -4.24718451808478       -2.41508235406248       -2.90875614019271
O           -3.29888034372526       -1.53462783713648       -2.78416708054590
H           -4.60042268391075       -4.61411999517232       -2.97488663806318
C           -5.41626716023848       -2.27275631650005       -1.84339973478004
H           -4.80060819331577       -2.36734418376221       -3.92948483206018
H           -3.00757451623453       -4.09959124585403       -3.57030123620618
C           -5.99634381002897       -0.87020203634636       -1.90544111441405
H           -3.33500017481493       -4.10073403676180       -1.83503162839184
H           -6.19455602607511       -3.02610120812767       -2.01856360295220
H           -4.98596301344579       -2.44214771892677       -0.85195082143401
H           -6.57397794609547       -0.73553196918077       -2.82035583851901
H           -6.63896306923156       -0.64206569858816       -1.04912868904667
H           -5.15613935350730       -0.17752474251826       -1.92688694445105
