16
tb_lite_results_shiftn0p15.json_gp325_b0_rot270 Î”E=-14.642 kcal/mol
C -6.312720 -3.534222 2.055969
C -5.977215 -4.010825 0.741457
O -9.408947 -5.328836 2.946885
H -7.650270 -3.581562 3.759030
C -6.898746 -4.981768 0.218708
O -4.935653 -3.600635 0.085365
C -8.021754 -5.420472 0.926345
H -9.896611 -5.985821 2.417900
C -8.301493 -4.921941 2.203522
H -8.692982 -6.162828 0.480154
C -7.435527 -3.974614 2.760902
H -5.650751 -2.792141 2.513396
H -6.700911 -5.387333 -0.778485
O -4.448355 -4.087933 -2.455226
H -4.625770 -3.910518 -1.530251
H -3.509442 -3.928935 -2.553271
