12
 energy: -22.062538257634 gnorm: 0.000380050749 xtb: 6.7.1 (edcfbbe)
C           -3.59935077012886        0.77659550203908       -0.00000364773996
C           -3.67491505721375       -0.57007466286962        0.00002419206108
H           -0.20792974912767        1.16048079172357       -0.00004590126858
O           -2.27390261360164        2.73786634996242       -0.00003390442537
C           -2.49364448317922       -1.42504208315013        0.00001968852887
H           -4.63272437558323       -1.07424930149350        0.00002767006754
C           -1.22895491450261       -0.69912096640687       -0.00004458542967
N           -2.56220629678776       -2.69637442207791       -0.00007117857420
C           -1.16240798966024        0.64800944805713       -0.00004358373392
H           -0.32934722802010       -1.30088535329085       -0.00004158006614
C           -2.34040098775814        1.47909791096351       -0.00002577820089
H           -4.49458446407389        1.38668563347392        0.00000010126627
