10
tb_lite_results_shiftn0p05.json_gp317_b0_rot90 Î”E=-8.657 kcal/mol
C -1.137677 -0.729160 0.645372
C -3.024197 2.112321 -0.219611
9 -2.008861 -1.615354 0.198531
9 0.004067 -0.774841 -0.014716
9 -0.963388 -0.814717 1.950633
O -3.533882 2.077490 0.803615
O -2.507148 2.137308 -1.239404
O 0.004067 0.503552 -2.361506
H 0.004067 0.045083 -1.519879
H -0.809986 1.007300 -2.359254
