10
tb_lite_results_original.json_gp184_b0_rot0 Î”E=-8.417 kcal/mol
C -1.137677 -0.729160 0.645372
C -3.024197 2.112321 -0.219611
9 -2.008861 -1.615354 0.198531
9 0.004067 -0.774841 -0.014716
9 -0.963388 -0.814717 1.950633
O -3.533882 2.077490 0.803615
O -2.507148 2.137308 -1.239404
O -2.512819 -1.111396 -2.428921
H -2.335404 -1.288811 -1.503946
H -2.385460 -0.166958 -2.519838
