15
tb_lite_results_shiftn0p15.json_gp646_b0_rot180 Î”E=-13.223 kcal/mol
C -4.059192 -1.935299 1.933084
C -3.761091 -2.416517 0.661557
Cl -7.443978 -3.949866 2.820626
C -5.205469 -2.359963 2.696749
H -3.409582 -1.193004 2.406777
C -4.581852 -3.367246 0.036999
H -2.871700 -2.044950 0.144597
C -5.713373 -3.823921 0.725684
H -4.353127 -3.748194 -0.958988
C -6.005533 -3.339090 1.996356
H -6.375746 -4.564402 0.271886
O -5.477588 -1.913042 3.866330
O -3.957773 -0.393227 5.386145
H -4.511105 -0.946559 4.832813
H -4.354990 -0.451138 6.255234
