8
 energy: -10.031872761771 gnorm: 0.000379036388 xtb: 6.7.1 (edcfbbe)
C           -2.16840055483329        1.50698672942772        0.02023909460222
C           -0.72011145138349        1.73208764529682       -0.37980774734410
H           -2.22367782728806        0.98716347605143        0.97375928297245
H           -2.68928822967117        2.45681611952334        0.11482662853117
H           -2.67091431290841        0.90635837232884       -0.73509097735862
S            0.17244356453591        2.72649434620791        0.82859662009412
H           -0.18446335624118        0.78520250103369       -0.46546518874143
H           -0.65325283221031        2.25977881013024       -1.33271371275580
