19
Coordinates from ORCA-job inp E -385.547126259664
  C      -5.303403     -3.623241      0.471886
  C      -6.503242     -4.142496      1.257592
  H      -2.081071     -1.603368      2.232836
  H      -1.604559     -0.771398      0.742877
  H      -3.056931     -0.254689      1.617461
  C      -7.346283     -5.201242      0.539354
  H      -6.159442     -4.580847      2.202722
  H      -7.165588     -3.304795      1.508749
  O      -6.980973     -5.522605     -0.624163
  O      -8.323858     -5.629519      1.218657
  C      -4.495651     -2.613118      1.288521
  C      -3.289235     -2.100517      0.502252
  H      -5.136891     -1.768767      1.569488
  H      -4.154323     -3.083246      2.218856
  C      -2.461663     -1.125347      1.324406
  H      -2.655423     -2.942502      0.200471
  H      -3.626555     -1.603272     -0.414645
  H      -4.657173     -4.462296      0.186036
  H      -5.646787     -3.154178     -0.458472
19
Coordinates from ORCA-job inp E -385.549518882140
  C      -5.306017     -3.630053      0.475240
  C      -6.515867     -4.161843      1.249356
  H      -2.048639     -1.564977      2.245342
  H      -1.567663     -0.733941      0.747724
  H      -3.030265     -0.218158      1.619798
  C      -7.388942     -5.228716      0.535822
  H      -6.175273     -4.601110      2.202079
  H      -7.177682     -3.320597      1.515786
  O      -7.067493     -5.570616     -0.639073
  O      -8.372914     -5.659258      1.212244
  C      -4.483770     -2.613511      1.280995
  C      -3.267691     -2.084074      0.511092
  H      -5.128498     -1.764955      1.567563
  H      -4.142102     -3.082636      2.219635
  C      -2.431410     -1.093901      1.327440
  H      -2.631062     -2.931287      0.206797
  H      -3.607980     -1.594146     -0.416071
  H      -4.658123     -4.472076      0.184639
  H      -5.647660     -3.161589     -0.461524
19
Coordinates from ORCA-job inp E -385.549513513086
  C      -5.307782     -3.629474      0.475031
  C      -6.518683     -4.159883      1.245326
  H      -2.047683     -1.552435      2.250998
  H      -1.561149     -0.725614      0.752900
  H      -3.028697     -0.210719      1.616309
  C      -7.406020     -5.215491      0.529324
  H      -6.183359     -4.606812      2.197866
  H      -7.176572     -3.318392      1.525550
  O      -7.084073     -5.582926     -0.639255
  O      -8.367243     -5.678712      1.218189
  C      -4.479578     -2.616913      1.276061
  C      -3.261651     -2.083097      0.514583
  H      -5.123169     -1.767021      1.567696
  H      -4.139641     -3.086644      2.217015
  C      -2.427472     -1.087335      1.327644
  H      -2.624479     -2.932019      0.211118
  H      -3.601626     -1.599812     -0.417811
  H      -4.662885     -4.474454      0.179901
  H      -5.647292     -3.159690     -0.463560
19
Coordinates from ORCA-job inp E -385.549463266687
  C      -5.298255     -3.643455      0.481824
  C      -6.506209     -4.174806      1.248781
  H      -2.054562     -1.515722      2.258197
  H      -1.562850     -0.701060      0.756080
  H      -3.042937     -0.194298      1.599732
  C      -7.407544     -5.219663      0.533851
  H      -6.178097     -4.628613      2.202370
  H      -7.162936     -3.336740      1.548651
  O      -7.146321     -5.549255     -0.663347
  O      -8.401139     -5.650017      1.199737
  C      -4.468659     -2.628532      1.270393
  C      -3.251999     -2.083640      0.520341
  H      -5.116187     -1.779959      1.566165
  H      -4.129109     -3.091730      2.217506
  C      -2.430988     -1.068922      1.323045
  H      -2.607665     -2.932004      0.223639
  H      -3.593674     -1.619708     -0.423416
  H      -4.652930     -4.490303      0.183543
  H      -5.636989     -3.179014     -0.462207
19
Coordinates from ORCA-job inp E -385.549759823812
  C      -5.300932     -3.637881      0.478565
  C      -6.508962     -4.167465      1.249287
  H      -2.058386     -1.535055      2.253537
  H      -1.568554     -0.716787      0.752752
  H      -3.043575     -0.206209      1.603842
  C      -7.400409     -5.214165      0.532547
  H      -6.176674     -4.619650      2.200214
  H      -7.165426     -3.328046      1.539177
  O      -7.108257     -5.549257     -0.654271
  O      -8.381658     -5.653989      1.208986
  C      -4.474827     -2.623669      1.275631
  C      -3.258782     -2.086729      0.516082
  H      -5.120469     -1.775526      1.568378
  H      -4.135110     -3.089303      2.218823
  C      -2.435607     -1.080820      1.323885
  H      -2.616251     -2.933704      0.218559
  H      -3.598842     -1.614430     -0.421930
  H      -4.655910     -4.482741      0.182881
  H      -5.640419     -3.172019     -0.462062
19
Coordinates from ORCA-job inp E -385.549768864209
  C      -5.299829     -3.639301      0.479269
  C      -6.507734     -4.168523      1.249572
  H      -2.061928     -1.528446      2.255219
  H      -1.569461     -0.714788      0.752884
  H      -3.047421     -0.203920      1.598437
  C      -7.403369     -5.209191      0.530687
  H      -6.176549     -4.625021      2.198926
  H      -7.162020     -3.329108      1.544892
  O      -7.114897     -5.540635     -0.658222
  O      -8.380864     -5.654341      1.209231
  C      -4.473339     -2.625482      1.275830
  C      -3.257179     -2.088399      0.516902
  H      -5.118902     -1.777353      1.569240
  H      -4.134111     -3.090456      2.219641
  C      -2.437499     -1.078601      1.322672
  H      -2.612954     -2.935209      0.222242
  H      -3.596697     -1.620333     -0.423548
  H      -4.655376     -4.484463      0.182762
  H      -5.638922     -3.173873     -0.461753
19
Coordinates from ORCA-job inp E -385.549774929359
  C      -5.297512     -3.642164      0.480824
  C      -6.505097     -4.171193      1.250744
  H      -2.068297     -1.517191      2.257624
  H      -1.571608     -0.712017      0.752329
  H      -3.054334     -0.200125      1.588461
  C      -7.406991     -5.202336      0.527978
  H      -6.175003     -4.634749      2.197066
  H      -7.155685     -3.331677      1.554338
  O      -7.126806     -5.522322     -0.666185
  O      -8.380557     -5.653100      1.208582
  C      -4.471145     -2.628302      1.276841
  C      -3.254842     -2.091547      0.518190
  H      -5.116832     -1.780246      1.570355
  H      -4.132639     -3.091859      2.221624
  C      -2.441165     -1.074935      1.320339
  H      -2.607498     -2.937917      0.229103
  H      -3.593343     -1.630607     -0.426188
  H      -4.653409     -4.487427      0.183598
  H      -5.636287     -3.177731     -0.460740
19
Coordinates from ORCA-job inp E -385.549777873350
  C      -5.295408     -3.644785      0.482496
  C      -6.502861     -4.174041      1.252117
  H      -2.073664     -1.506945      2.259564
  H      -1.573245     -0.710076      0.751263
  H      -3.059964     -0.196375      1.578932
  C      -7.410362     -5.197006      0.525322
  H      -6.173091     -4.644007      2.195342
  H      -7.149837     -3.334108      1.562539
  O      -7.138680     -5.504213     -0.674186
  O      -8.380168     -5.653223      1.207660
  C      -4.469503     -2.630399      1.278159
  C      -3.252862     -2.094444      0.519467
  H      -5.115419     -1.782228      1.570797
  H      -4.131642     -3.092586      2.223810
  C      -2.444154     -1.071530      1.318138
  H      -2.602683     -2.940520      0.236029
  H      -3.590322     -1.639763     -0.428314
  H      -4.651060     -4.489905      0.185217
  H      -5.634128     -3.181287     -0.459467
19
Coordinates from ORCA-job inp E -385.549779856872
  C      -5.293691     -3.647018      0.484138
  C      -6.501170     -4.176720      1.253538
  H      -2.077826     -1.498287      2.261080
  H      -1.574204     -0.709010      0.749965
  H      -3.064046     -0.192890      1.570464
  C      -7.413461     -5.192939      0.522804
  H      -6.171211     -4.652233      2.193831
  H      -7.144832     -3.336096      1.569181
  O      -7.150072     -5.487230     -0.681743
  O      -8.379007     -5.655381      1.206902
  C      -4.468474     -2.631723      1.279459
  C      -3.251268     -2.096921      0.520693
  H      -5.114689     -1.783220      1.570379
  H      -4.131257     -3.092599      2.225937
  C      -2.446295     -1.068590      1.316241
  H      -2.598730     -2.942921      0.242623
  H      -3.587671     -1.647371     -0.429896
  H      -4.648594     -4.491842      0.187454
  H      -5.632554     -3.184453     -0.458165
