!OPT PBE D3BJ def2-TZVP CPCM(water)

*xyz -1 1
C     -7.046002   -4.552722    1.558691
C     -8.043668   -3.409858    1.584479
O     -7.652471   -5.727997    1.029235
H     -6.148685   -4.287035    0.987437
H     -6.727697   -4.782628    2.580652
O     -7.587248   -5.599823   -0.369982
H     -8.367829   -3.150914    0.571268
H     -8.941026   -3.694411    2.143732
H     -7.604592   -2.521881    2.048008
*
