9
Coordinates from ORCA-job inp E -229.510471377604
  C      -7.046002     -4.552722      1.558691
  C      -8.043668     -3.409858      1.584479
  O      -7.652471     -5.727997      1.029235
  H      -6.148685     -4.287035      0.987437
  H      -6.727697     -4.782628      2.580652
  O      -7.587248     -5.599823     -0.369982
  H      -8.367829     -3.150914      0.571268
  H      -8.941026     -3.694411      2.143732
  H      -7.604592     -2.521881      2.048008
9
Coordinates from ORCA-job inp E -229.515305597192
  C      -7.045059     -4.553129      1.573614
  C      -8.045455     -3.401809      1.586769
  O      -7.597977     -5.745594      1.025652
  H      -6.139042     -4.278681      1.003944
  H      -6.731843     -4.788594      2.609512
  O      -7.643346     -5.622105     -0.427239
  H      -8.358426     -3.151929      0.562856
  H      -8.947109     -3.684528      2.150224
  H      -7.610962     -2.500900      2.048189
9
Coordinates from ORCA-job inp E -229.516178778291
  C      -7.042691     -4.556430      1.580440
  C      -8.045789     -3.404445      1.581192
  O      -7.555796     -5.758344      1.034433
  H      -6.129993     -4.271506      1.016337
  H      -6.740123     -4.797485      2.618625
  O      -7.692336     -5.592793     -0.432903
  H      -8.347376     -3.164333      0.551283
  H      -8.948940     -3.683882      2.146495
  H      -7.616173     -2.498051      2.037617
9
Coordinates from ORCA-job inp E -229.516289655440
  C      -7.043806     -4.556803      1.578751
  C      -8.046442     -3.404964      1.579265
  O      -7.541252     -5.762938      1.038406
  H      -6.127760     -4.262700      1.021755
  H      -6.748355     -4.802386      2.617279
  O      -7.704677     -5.589210     -0.433944
  H      -8.344992     -3.166753      0.549254
  H      -8.948282     -3.681060      2.148268
  H      -7.613652     -2.500455      2.034485
9
Coordinates from ORCA-job inp E -229.516306144625
  C      -7.044412     -4.556968      1.576940
  C      -8.047090     -3.405516      1.578555
  O      -7.538563     -5.763946      1.039018
  H      -6.127332     -4.257484      1.024599
  H      -6.752019     -4.804097      2.616126
  O      -7.705670     -5.590033     -0.434173
  H      -8.346326     -3.167404      0.548934
  H      -8.947675     -3.678878      2.150498
  H      -7.610130     -2.502942      2.033022
9
Coordinates from ORCA-job inp E -229.516311384253
  C      -7.044690     -4.557383      1.575816
  C      -8.047794     -3.406087      1.578122
  O      -7.537767     -5.764271      1.038335
  H      -6.126991     -4.254036      1.027030
  H      -6.754195     -4.804986      2.615689
  O      -7.705034     -5.590772     -0.434451
  H      -8.348568     -3.168155      0.548902
  H      -8.947342     -3.676775      2.152700
  H      -7.606837     -2.504805      2.031376
9
Coordinates from ORCA-job inp E -229.516312321368
  C      -7.044827     -4.557760      1.575720
  C      -8.048166     -3.406298      1.578073
  O      -7.537536     -5.764313      1.037441
  H      -6.126851     -4.253234      1.028083
  H      -6.754879     -4.805256      2.615832
  O      -7.704286     -5.590809     -0.434834
  H      -8.350020     -3.168812      0.549043
  H      -8.947244     -3.675585      2.153996
  H      -7.605409     -2.505202      2.030167
