11
Coordinates from ORCA-job inp E -193.669782341737
  C      -3.388817     -4.189429     -2.962457
  C      -4.203620     -2.927800     -2.578216
  O      -3.379849     -2.125768     -1.921383
  H      -5.096893     -3.298751     -2.050349
  H      -4.646623     -2.559942     -3.517560
  C      -4.236954     -5.189377     -3.740434
  H      -2.521123     -3.918193     -3.580081
  H      -3.002226     -4.689051     -2.063311
  H      -4.603110     -4.750488     -4.673975
  H      -3.643083     -6.073935     -3.991460
  H      -5.099490     -5.515780     -3.150608
11
Coordinates from ORCA-job inp E -193.677435314026
  C      -3.394351     -4.203037     -2.969645
  C      -4.168109     -2.912599     -2.558762
  O      -3.404387     -2.023030     -1.882626
  H      -5.087301     -3.289015     -2.015057
  H      -4.628903     -2.534670     -3.521567
  C      -4.239794     -5.220122     -3.757630
  H      -2.521401     -3.918290     -3.580127
  H      -3.004180     -4.691348     -2.061248
  H      -4.610616     -4.781189     -4.696687
  H      -3.652258     -6.115300     -4.016293
  H      -5.110489     -5.549915     -3.170192
11
Coordinates from ORCA-job inp E -193.677965671709
  C      -3.395838     -4.208354     -2.971776
  C      -4.159719     -2.919949     -2.559472
  O      -3.417526     -2.005873     -1.883021
  H      -5.078625     -3.299080     -2.003172
  H      -4.618931     -2.539071     -3.529993
  C      -4.240287     -5.220562     -3.758830
  H      -2.519331     -3.912393     -3.575804
  H      -3.004166     -4.687540     -2.056518
  H      -4.612661     -4.779128     -4.697324
  H      -3.660454     -6.118762     -4.021136
  H      -5.114251     -5.547804     -3.172787
11
Coordinates from ORCA-job inp E -193.678057494313
  C      -3.395223     -4.212327     -2.972441
  C      -4.158098     -2.926693     -2.562034
  O      -3.425885     -2.000853     -1.888560
  H      -5.072955     -3.305373     -1.996512
  H      -4.615710     -2.544963     -3.534409
  C      -4.239664     -5.218147     -3.758362
  H      -2.516338     -3.909510     -3.570816
  H      -3.002590     -4.685537     -2.053702
  H      -4.612702     -4.773788     -4.695403
  H      -3.666615     -6.119275     -4.023906
  H      -5.116008     -5.542047     -3.173688
11
Coordinates from ORCA-job inp E -193.678071982438
  C      -3.394274     -4.214014     -2.972192
  C      -4.159279     -2.929227     -2.563427
  O      -3.428050     -2.000263     -1.892817
  H      -5.070817     -3.306849     -1.993570
  H      -4.616752     -2.548232     -3.535183
  C      -4.238923     -5.216849     -3.758167
  H      -2.514283     -3.908597     -3.567617
  H      -3.001289     -4.685010     -2.052485
  H      -4.611852     -4.770837     -4.694464
  H      -3.669584     -6.119855     -4.025392
  H      -5.116684     -5.538782     -3.174520
11
Coordinates from ORCA-job inp E -193.678076239312
  C      -3.393581     -4.214864     -2.971753
  C      -4.160671     -2.930139     -2.564065
  O      -3.428094     -1.999946     -1.896008
  H      -5.069543     -3.306976     -1.991309
  H      -4.618744     -2.550448     -3.534948
  C      -4.238248     -5.216370     -3.758332
  H      -2.512955     -3.907889     -3.565236
  H      -3.000532     -4.684789     -2.051669
  H      -4.610652     -4.769343     -4.694365
  H      -3.671554     -6.120862     -4.026472
  H      -5.117212     -5.536887     -3.175676
11
Coordinates from ORCA-job inp E -193.678076822439
  C      -3.393474     -4.214997     -2.971519
  C      -4.161156     -2.930086     -2.564018
  O      -3.427416     -1.999522     -1.897204
  H      -5.069011     -3.306756     -1.990093
  H      -4.620011     -2.551271     -3.534535
  C      -4.237954     -5.216444     -3.758602
  H      -2.512743     -3.907483     -3.564476
  H      -3.000582     -4.684822     -2.051382
  H      -4.609736     -4.769213     -4.694808
  H      -3.672167     -6.121547     -4.026696
  H      -5.117537     -5.536372     -3.176503
