17
tb_lite_results_original.json_gp413_b0_rot180 Î”E=-9.927 kcal/mol
C -2.047154 -2.867789 1.619997
C -2.524840 -2.197521 0.424711
C -3.708911 -2.539492 -0.185307
C -4.510094 -3.576687 0.347184
C -4.088550 -4.263779 1.509587
C -2.905107 -3.924966 2.122291
O -6.434736 -4.846238 0.209142
O -0.955029 -2.551389 2.186940
H -1.906169 -1.395918 0.014086
H -4.049021 -2.021746 -1.082218
N -5.729432 -3.925204 -0.279932
H -4.716745 -5.061565 1.905890
O -6.089531 -3.308472 -1.316568
N -2.578820 -4.454973 3.020365
O -0.955029 -2.551389 4.969338
H -0.955029 -2.551389 4.010938
H -0.955029 -3.478389 5.208338
