14
tb_lite_results_shiftn0p25.json_gp175_b0_rot90 Î”E=-19.544 kcal/mol
C -3.706143 -4.003373 -2.674550
C -4.224429 -2.603998 -3.145013
O -3.272209 -1.676303 -3.203186
H -6.264642 -2.947116 -2.209594
C -5.431024 -2.206898 -2.230089
H -4.748068 -2.854541 -4.165770
H -5.836148 -1.228788 -2.569331
H -5.059927 -2.059346 -1.189344
H -3.288297 -3.905788 -1.645722
H -4.476081 -4.809925 -2.670717
H -2.868302 -4.318232 -3.334078
O -2.270166 -0.674259 -1.104410
H -2.649395 -1.053488 -1.898703
H -1.407326 -1.082736 -1.032963
