!OPT PBE D3BJ def2-TZVP CPCM(water)

* xyz -1 1
O     -1.306100    4.397319   -1.404301
C     -1.564177    3.413491   -0.558167
C     -3.038023    3.020679   -0.762769
H     -0.998724    2.473900   -0.658580
H     -1.465496    3.610594    0.520694
H     -3.232657    2.674867   -1.785723
H     -3.300293    2.199808   -0.085083
H     -3.718050    3.853891   -0.545367
*
