8
 energy: -16.377430674646 gnorm: 0.000598883578 xtb: 6.7.1 (edcfbbe)
C           -5.34116752797728       -3.65684930942853        0.54437082508476
C           -6.34697753362475       -4.22275950326331        1.18698851752864
O           -8.29098286405720       -5.55415930992018        1.22694180133456
H           -5.23693072343041       -3.81987052082858       -0.51657969005962
O           -7.24812186306753       -5.30777647087721       -0.72787264498377
C           -7.37503376149306       -5.09877486466459        0.49984478859047
H           -4.61140919393462       -3.03351768259745        1.03374298669482
H           -6.51185652295374       -4.09954590657924        2.24938303397917
