7
 energy: -26.967557812511 gnorm: 0.000365062395 xtb: 6.7.1 (edcfbbe)
C           -1.55927416291571       -0.14928083076604        0.44503477914986
C           -2.40517194642243        1.17059684290414        0.07277708239967
F           -2.20411289940184       -1.28603243551303        0.08963171565056
F           -0.35604067709828       -0.20962515992466       -0.16294443557291
F           -1.30876327945716       -0.27210549482364        1.76574642657352
O           -3.19182024627440        1.51187167878507        0.94790612227359
O           -2.14588184258131        1.62769407071647       -1.03368989138434
