13
Coordinates from ORCA-job inp E -381.499088593429
  C      -6.309138     -3.529029      2.058643
  C      -6.056829     -4.049092      0.779043
  O      -9.350765     -5.310765      2.905625
  H      -7.628539     -3.564127      3.762023
  C      -6.882816     -5.004504      0.155171
  H      -5.178825     -3.699153      0.236892
  C      -7.994550     -5.404426      0.919815
  O      -6.645129     -5.470717     -1.007333
  C      -8.257589     -4.893416      2.197393
  H      -8.661832     -6.141492      0.478768
  C      -7.419934     -3.955335      2.774270
  H      -5.630986     -2.795215      2.479231
  H      -9.796759     -5.956751      2.333125
13
Coordinates from ORCA-job inp E -381.504350063573
  C      -6.296034     -3.521689      2.053767
  C      -6.029544     -4.031367      0.773291
  O      -9.370681     -5.319018      2.918440
  H      -7.635216     -3.555833      3.787325
  C      -6.871981     -5.008284      0.132605
  H      -5.139441     -3.676510      0.225259
  C      -8.009273     -5.415808      0.916453
  O      -6.629705     -5.478354     -1.037382
  C      -8.272893     -4.903741      2.198421
  H      -8.689753     -6.164348      0.472628
  C      -7.420538     -3.951000      2.783099
  H      -5.610884     -2.775718      2.487703
  H      -9.837748     -5.972352      2.361057
13
Coordinates from ORCA-job inp E -381.504840467978
  C      -6.294565     -3.522593      2.050238
  C      -6.019315     -4.024377      0.771647
  O      -9.372527     -5.318475      2.922329
  H      -7.639639     -3.556971      3.791488
  C      -6.866400     -5.009758      0.123684
  H      -5.129252     -3.670918      0.221396
  C      -8.012721     -5.418289      0.914605
  O      -6.624124     -5.479153     -1.044152
  C      -8.276171     -4.907191      2.195959
  H      -8.695735     -6.167539      0.472360
  C      -7.421208     -3.949905      2.786139
  H      -5.612180     -2.774829      2.490886
  H      -9.849854     -5.974026      2.376086
13
Coordinates from ORCA-job inp E -381.504927869966
  C      -6.295720     -3.524406      2.048411
  C      -6.015635     -4.021633      0.771091
  O      -9.370471     -5.316631      2.923190
  H      -7.642708     -3.558884      3.792309
  C      -6.864203     -5.009601      0.119403
  H      -5.126633     -3.671014      0.218415
  C      -8.012941     -5.418173      0.913502
  O      -6.621986     -5.479244     -1.044895
  C      -8.275882     -4.908062      2.193729
  H      -8.696484     -6.167347      0.472687
  C      -7.421500     -3.949306      2.787452
  H      -5.616125     -2.776329      2.493737
  H      -9.853402     -5.973393      2.383635
13
Coordinates from ORCA-job inp E -381.504940227274
  C      -6.296620     -3.525308      2.048088
  C      -6.015185     -4.021346      0.771120
  O      -9.369030     -5.315429      2.922840
  H      -7.644071     -3.559979      3.792378
  C      -6.862987     -5.010250      0.119013
  H      -5.127361     -3.672326      0.216122
  C      -8.012065     -5.417703      0.913260
  O      -6.621965     -5.478671     -1.044616
  C      -8.274982     -4.907822      2.192837
  H      -8.695819     -6.166453      0.472764
  C      -7.421305     -3.949113      2.787948
  H      -5.618609     -2.777013      2.495383
  H      -9.853693     -5.972609      2.385529
13
Coordinates from ORCA-job inp E -381.504942347245
  C      -6.296924     -3.525428      2.048135
  C      -6.015477     -4.021357      0.771176
  O      -9.368349     -5.315199      2.922621
  H      -7.644738     -3.560428      3.792386
  C      -6.863552     -5.009176      0.118654
  H      -5.127873     -3.674038      0.214872
  C      -8.011658     -5.417114      0.913115
  O      -6.621603     -5.478921     -1.044054
  C      -8.274491     -4.907513      2.192628
  H      -8.695149     -6.166127      0.472848
  C      -7.421231     -3.948774      2.787990
  H      -5.619376     -2.777353      2.496421
  H      -9.853270     -5.972593      2.385876
13
Coordinates from ORCA-job inp E -381.504943019480
  C      -6.296824     -3.525339      2.048264
  C      -6.015595     -4.021506      0.771324
  O      -9.368344     -5.315035      2.922424
  H      -7.645035     -3.560676      3.792432
  C      -6.863068     -5.009731      0.119324
  H      -5.128527     -3.674617      0.213846
  C      -8.011344     -5.417094      0.913212
  O      -6.621775     -5.478449     -1.044124
  C      -8.274329     -4.907371      2.192666
  H      -8.695001     -6.165874      0.472769
  C      -7.421017     -3.948772      2.788046
  H      -5.619648     -2.777094      2.496817
  H      -9.853186     -5.972464      2.385665
13
Coordinates from ORCA-job inp E -381.504943246392
  C      -6.296657     -3.525158      2.048291
  C      -6.015607     -4.021422      0.771357
  O      -9.368415     -5.315134      2.922480
  H      -7.645127     -3.560763      3.792439
  C      -6.863230     -5.009498      0.119362
  H      -5.128540     -3.674901      0.213588
  C      -8.011462     -5.417066      0.913182
  O      -6.621554     -5.478502     -1.044061
  C      -8.274421     -4.907347      2.192714
  H      -8.695077     -6.165938      0.472754
  C      -7.421001     -3.948724      2.787970
  H      -5.619465     -2.776983      2.496963
  H      -9.853135     -5.972586      2.385625
