3
 energy: -5.070544054954 gnorm: 0.000881994751 xtb: 6.7.1 (edcfbbe)
O            0.00786668432535        0.00908741295526       -0.00000004332034
H            0.96613472497344       -0.01389726978487       -0.00000334820017
H           -0.25459655186018        0.93180609455881       -0.00000073757946
