9
 energy: -15.128785856943 gnorm: 0.000868470458 xtb: 6.7.1 (edcfbbe)
C           -5.85981315776895       -3.97909609196021        1.21567282586998
C           -6.73022128292018       -5.29089281740403        0.99247374591505
O           -6.73107273102809       -3.01083750195191        1.60405176587487
H           -5.07614149306324       -4.17466167616822        1.98030591457376
H           -5.33092419145697       -3.71728171777816        0.27209151185838
H           -6.36446187336158       -6.09354688771323        1.67445440538650
O           -8.01631090171665       -4.94625499450728        1.23964479824389
H           -6.57729145000932       -5.66402330389476       -0.04640532716751
H           -7.69344418116412       -3.75741108538792        1.52356706256586
