8
 energy: -16.271325257434 gnorm: 0.000737013008 xtb: 6.7.1 (edcfbbe)
C           -5.34153240790765       -3.65694132352084        0.55123689091269
C           -6.34853551037241       -4.22566558596975        1.18695633178688
O           -8.29635981935860       -5.55350519586805        1.23281147361437
H           -5.22948450868134       -3.81111703269938       -0.51140960437408
O           -7.24624933923663       -5.30998754135334       -0.73198363504819
C           -7.40177313548040       -5.12060707785367        0.48481151552103
H           -4.59937535431266       -3.02457654715120        1.03019955256902
H           -6.49916991518889       -4.09085326374286        2.25419709318732
