18
tb_lite_results_shiftn0p25.json_gp248_b0_rot180 Î”E=-19.171 kcal/mol
C -4.474167 -3.754388 -3.182950
C -3.482399 -2.736579 -2.648954
C -4.043743 -1.695798 -1.618509
O -3.155881 -0.844978 -1.133455
O -5.401477 -3.121477 -4.059811
C -6.383475 -4.009790 -4.537449
H -5.939188 -4.863077 -5.108276
H -6.995047 -4.447785 -3.709909
H -7.058231 -3.447986 -5.213915
H -3.959568 -4.590729 -3.722748
H -5.026992 -4.227842 -2.328388
H -2.646222 -3.274034 -2.146351
H -3.021681 -2.177826 -3.496504
H -4.965103 -1.239121 -2.166349
H -4.595171 -2.386013 -0.844170
O -2.608991 0.903443 -2.881876
H -2.815964 0.241743 -2.220176
H -3.197397 0.705050 -3.610483
