8
 energy: -23.765064077506 gnorm: 0.000293750287 xtb: 6.7.1 (edcfbbe)
C           -3.10021147376645       -2.91253151616896        0.33047641029075
C           -4.60775044484561       -3.38092342214204        0.31094978390127
F           -2.24859124849807       -3.87151898801245       -0.16274933274523
F           -2.83741513324700       -1.81919062426116       -0.41838865993794
F           -2.60991374759337       -2.63342085245735        1.55793219608134
O           -5.45598928830526       -2.53131961269278        0.76187064895168
H           -4.52630925396369       -4.37676293407975        0.87430325725162
H           -4.71916281536845       -3.68656611656494       -0.78896921283780
