9
tb_lite_results_shiftn0p2.json_gp394_b0_rot180 Î”E=-20.338 kcal/mol
C -7.134495 -4.412905 1.601722
H -7.883305 -3.594435 1.543463
O -7.627983 -5.608386 1.062111
H -6.218287 -4.070213 1.075738
H -6.891864 -4.606042 2.663045
O -7.945555 -5.343727 -0.368530
O -10.213311 -4.108388 -0.368530
H -9.371684 -4.566857 -0.368530
H -10.866639 -4.808111 -0.368530
