9
tb_lite_results_shiftn0p2.json_gp380_b0_rot90 Î”E=-20.233 kcal/mol
C -7.134495 -4.412905 1.601722
H -7.883305 -3.594435 1.543463
O -7.627983 -5.608386 1.062111
H -6.218287 -4.070213 1.075738
H -6.891864 -4.606042 2.663045
O -7.945555 -5.343727 -0.368530
O -6.923728 -7.483941 -1.390358
H -7.302956 -6.689648 -1.011129
H -7.195962 -8.185064 -0.798103
