9
tb_lite_results_shiftn0p25.json_gp400_b0_rot180 Î”E=-20.361 kcal/mol
C -7.134495 -4.412905 1.601722
H -7.883305 -3.594435 1.543463
O -7.627983 -5.608386 1.062111
H -6.218287 -4.070213 1.075738
H -6.891864 -4.606042 2.663045
O -7.945555 -5.343727 -0.368530
O -5.721707 -5.343727 -1.579951
H -6.563335 -5.343727 -1.121482
H -5.511827 -6.270727 -1.694281
