15
Coordinates from ORCA-job inp E -345.991735114835
  C      -5.266936     -6.403754      3.004699
  C      -5.106311     -5.096931      3.631957
  H      -5.938157     -7.124763      3.448568
  C      -4.672317     -8.057163      1.131654
  C      -4.204945     -4.110792      3.047945
  H      -5.652473     -4.848889      4.529902
  C      -3.477540     -4.449921      1.845278
  H      -4.083241     -3.138551      3.506088
  C      -3.622212     -5.737770      1.201665
  O      -2.709857     -3.603511      1.342759
  C      -4.524992     -6.730263      1.787650
  H      -5.375437     -8.702391      1.668433
  H      -5.042975     -7.941293      0.107763
  H      -3.708789     -8.576080      1.092453
  H      -3.072611     -5.953444      0.294606
15
Coordinates from ORCA-job inp E -346.007458222400
  C      -5.240353     -6.384485      2.981611
  C      -5.085957     -5.115187      3.592296
  H      -5.915077     -7.117896      3.424848
  C      -4.677994     -8.043762      1.146910
  C      -4.219347     -4.148260      3.040453
  H      -5.643100     -4.877820      4.500943
  C      -3.473437     -4.438706      1.839761
  H      -4.108153     -3.174312      3.517208
  C      -3.646493     -5.736936      1.234056
  O      -2.682676     -3.570076      1.329796
  C      -4.520762     -6.700065      1.800361
  H      -5.385727     -8.684161      1.692821
  H      -5.050199     -7.939723      0.116113
  H      -3.714975     -8.575011      1.101920
  H      -3.094544     -5.969115      0.322324
15
Coordinates from ORCA-job inp E -346.009411662836
  C      -5.233722     -6.380009      2.976956
  C      -5.077153     -5.123299      3.574492
  H      -5.908153     -7.119020      3.418260
  C      -4.679909     -8.038245      1.151526
  C      -4.225386     -4.168519      3.033143
  H      -5.636292     -4.888253      4.486377
  C      -3.466445     -4.430877      1.836967
  H      -4.116101     -3.192280      3.514480
  C      -3.662522     -5.733065      1.256846
  O      -2.668249     -3.552971      1.319687
  C      -4.521753     -6.686192      1.809113
  H      -5.388205     -8.675607      1.700396
  H      -5.049921     -7.940771      0.118198
  H      -3.718465     -8.574062      1.100915
  H      -3.106516     -5.972346      0.344066
15
Coordinates from ORCA-job inp E -346.009525541385
  C      -5.239398     -6.383056      2.980440
  C      -5.078173     -5.122956      3.576901
  H      -5.913525     -7.122511      3.420911
  C      -4.679140     -8.040201      1.149957
  C      -4.224338     -4.168181      3.031860
  H      -5.635482     -4.886231      4.489606
  C      -3.467686     -4.425750      1.832619
  H      -4.110834     -3.191339      3.512566
  C      -3.664805     -5.730558      1.259060
  O      -2.664157     -3.550866      1.317429
  C      -4.523778     -6.687770      1.809951
  H      -5.387666     -8.677252      1.698507
  H      -5.046755     -7.943534      0.115788
  H      -3.717494     -8.575443      1.098700
  H      -3.105562     -5.969870      0.347123
15
Coordinates from ORCA-job inp E -346.009538484660
  C      -5.241563     -6.386335      2.984547
  C      -5.078916     -5.122733      3.578027
  H      -5.915668     -7.125943      3.423460
  C      -4.678996     -8.040586      1.148447
  C      -4.223260     -4.168993      3.031179
  H      -5.636548     -4.883626      4.489673
  C      -3.459820     -4.426500      1.835973
  H      -4.110561     -3.189633      3.507923
  C      -3.665184     -5.729886      1.262765
  O      -2.665769     -3.548543      1.312946
  C      -4.524552     -6.689130      1.811239
  H      -5.388350     -8.676449      1.696947
  H      -5.044531     -7.943514      0.113704
  H      -3.717791     -8.576341      1.095865
  H      -3.107285     -5.967304      0.348728
15
Coordinates from ORCA-job inp E -346.009552201188
  C      -5.242279     -6.385662      2.983518
  C      -5.078574     -5.122935      3.577681
  H      -5.915816     -7.125600      3.422402
  C      -4.678558     -8.040277      1.148947
  C      -4.223737     -4.169294      3.031033
  H      -5.635016     -4.884395      4.490063
  C      -3.464615     -4.424520      1.832626
  H      -4.108743     -3.191038      3.509349
  C      -3.666396     -5.729672      1.262191
  O      -2.664282     -3.550200      1.314714
  C      -4.524887     -6.688723      1.810890
  H      -5.388275     -8.675531      1.697676
  H      -5.043241     -7.944027      0.113825
  H      -3.717256     -8.575915      1.097270
  H      -3.107119     -5.967726      0.349236
15
Coordinates from ORCA-job inp E -346.009553189538
  C      -5.241764     -6.385494      2.983266
  C      -5.078377     -5.123078      3.577593
  H      -5.915287     -7.125613      3.422015
  C      -4.678678     -8.040129      1.149124
  C      -4.223818     -4.169233      3.031247
  H      -5.635006     -4.884655      4.489942
  C      -3.464391     -4.424753      1.832938
  H      -4.109164     -3.190938      3.509474
  C      -3.666201     -5.729827      1.261840
  O      -2.664889     -3.550358      1.314884
  C      -4.524704     -6.688650      1.810739
  H      -5.388869     -8.674949      1.697803
  H      -5.042947     -7.943931      0.113831
  H      -3.717538     -8.576151      1.097945
  H      -3.107160     -5.967758      0.348780
