13
Coordinates from ORCA-job inp E -286.847874183162
  H      -3.585041      3.403771     -1.062732
  C      -0.281705      3.423775     -0.200991
  C      -2.645933      3.035886     -0.665709
  H      -1.258905      0.313563      0.807490
  H       0.728345      1.778444      0.734638
  C      -2.561875      1.756665     -0.122962
  C      -1.514606      3.858346     -0.702513
  C      -1.345021      1.306157      0.380843
  H      -3.435959      1.117090     -0.092862
  C      -0.219549      2.135708      0.339614
  H      -1.595034      4.854506     -1.129106
  N       0.819815      4.194669     -0.224690
  H       0.569580      5.090954     -0.655462
13
Coordinates from ORCA-job inp E -286.851395744986
  H      -3.604233      3.402907     -1.067461
  C      -0.263169      3.441014     -0.203027
  C      -2.655280      3.035468     -0.667643
  H      -1.257585      0.300766      0.812425
  H       0.733920      1.760794      0.743819
  C      -2.574609      1.746625     -0.122039
  C      -1.530468      3.863801     -0.708616
  C      -1.344346      1.302067      0.382864
  H      -3.454182      1.099941     -0.091509
  C      -0.216773      2.125885      0.345080
  H      -1.620869      4.865426     -1.139803
  N       0.853081      4.211900     -0.223313
  H       0.608625      5.112940     -0.655219
13
Coordinates from ORCA-job inp E -286.851997473177
  H      -3.606942      3.401361     -1.067611
  C      -0.251895      3.451883     -0.204275
  C      -2.656168      3.034218     -0.667185
  H      -1.256464      0.301324      0.812112
  H       0.732885      1.755738      0.746107
  C      -2.582388      1.740855     -0.121660
  C      -1.537110      3.864139     -0.710021
  C      -1.344224      1.304370      0.382200
  H      -3.461296      1.092713     -0.091483
  C      -0.217874      2.123300      0.346609
  H      -1.630626      4.866797     -1.142038
  N       0.866333      4.215990     -0.222130
  H       0.619880      5.116846     -0.655067
13
Coordinates from ORCA-job inp E -286.852079365273
  H      -3.605323      3.400585     -1.066785
  C      -0.247679      3.455896     -0.205000
  C      -2.654799      3.032936     -0.666326
  H      -1.256214      0.303551      0.811392
  H       0.731517      1.756180      0.745777
  C      -2.585710      1.738395     -0.121525
  C      -1.538177      3.862975     -0.709777
  C      -1.344624      1.306524      0.381265
  H      -3.463560      1.090498     -0.091566
  C      -0.219366      2.123403      0.346293
  H      -1.631169      4.865939     -1.141433
  N       0.868199      4.215842     -0.221813
  H       0.621018      5.116810     -0.654944
13
Coordinates from ORCA-job inp E -286.852089429034
  H      -3.604151      3.400456     -1.066351
  C      -0.247044      3.456628     -0.205172
  C      -2.654016      3.032209     -0.665844
  H      -1.256187      0.304510      0.811123
  H       0.731069      1.757526      0.745132
  C      -2.586753      1.737611     -0.121468
  C      -1.537841      3.862108     -0.709387
  C      -1.344988      1.307271      0.380841
  H      -3.464202      1.089968     -0.091596
  C      -0.220179      2.123842      0.345833
  H      -1.629623      4.865258     -1.140722
  N       0.867105      4.215404     -0.221943
  H       0.620922      5.116742     -0.654888
13
Coordinates from ORCA-job inp E -286.852090677073
  H      -3.603832      3.400552     -1.066282
  C      -0.247252      3.456518     -0.205233
  C      -2.653891      3.031925     -0.665704
  H      -1.256131      0.304673      0.811128
  H       0.731078      1.758337      0.744775
  C      -2.587028      1.737403     -0.121433
  C      -1.537653      3.861723     -0.709234
  C      -1.345156      1.307344      0.380762
  H      -3.464403      1.089814     -0.091565
  C      -0.220485      2.124015      0.345617
  H      -1.628633      4.865005     -1.140407
  N       0.866297      4.215286     -0.222082
  H       0.621201      5.116937     -0.654781
13
Coordinates from ORCA-job inp E -286.852090824841
  H      -3.603853      3.400647     -1.066328
  C      -0.247426      3.456412     -0.205227
  C      -2.653983      3.031861     -0.665702
  H      -1.256070      0.304625      0.811164
  H       0.731175      1.758643      0.744656
  C      -2.587088      1.737361     -0.121417
  C      -1.537692      3.861627     -0.709220
  C      -1.345194      1.307279      0.380776
  H      -3.464456      1.089743     -0.091533
  C      -0.220557      2.124015      0.345581
  H      -1.628304      4.864973     -1.140339
  N       0.866057      4.215281     -0.222126
  H       0.621504      5.117066     -0.654727
