!OPT PBE def2-TZVP CPCM(water)

*xyz -1 1
C     -5.257170   -6.506591    2.925147
C     -5.094353   -5.261262    3.507937
C     -2.945980   -6.292666   -0.068029
H     -4.667426   -7.779365    1.305090
C     -4.222943   -4.329690    2.928324
H     -5.633874   -4.996330    4.409787
C     -3.474591   -4.574746    1.756373
H     -4.113008   -3.356615    3.407125
C     -3.668142   -5.861956    1.188204
O     -2.696161   -3.682207    1.277547
C     -4.546572   -6.805598    1.769544
H     -5.927581   -7.236385    3.362617
H     -2.280912   -5.525699   -0.474282
H     -2.335436   -7.177558    0.141837
H     -3.675281   -6.539569   -0.847131
*
