15
Coordinates from ORCA-job inp E -346.004435354995
  C      -5.257170     -6.506591      2.925147
  C      -5.094353     -5.261262      3.507937
  C      -2.945980     -6.292666     -0.068029
  H      -4.667426     -7.779365      1.305090
  C      -4.222943     -4.329690      2.928324
  H      -5.633874     -4.996330      4.409787
  C      -3.474591     -4.574746      1.756373
  H      -4.113008     -3.356615      3.407125
  C      -3.668142     -5.861956      1.188204
  O      -2.696161     -3.682207      1.277547
  C      -4.546572     -6.805598      1.769544
  H      -5.927581     -7.236385      3.362617
  H      -2.280912     -5.525699     -0.474282
  H      -2.335436     -7.177558      0.141837
  H      -3.675281     -6.539569     -0.847131
15
Coordinates from ORCA-job inp E -346.007440186836
  C      -5.266193     -6.508977      2.935621
  C      -5.099588     -5.250902      3.521961
  C      -2.939809     -6.296426     -0.078519
  H      -4.671930     -7.790212      1.303221
  C      -4.230907     -4.320535      2.944350
  H      -5.643473     -4.983954      4.432294
  C      -3.475213     -4.576767      1.754451
  H      -4.114387     -3.340380      3.420104
  C      -3.672652     -5.880845      1.180922
  O      -2.681471     -3.689672      1.253267
  C      -4.549708     -6.808433      1.770861
  H      -5.942154     -7.245470      3.376925
  H      -2.281735     -5.503947     -0.459130
  H      -2.315197     -7.183445      0.111768
  H      -3.655013     -6.546275     -0.878006
15
Coordinates from ORCA-job inp E -346.008107209664
  C      -5.273425     -6.511186      2.943965
  C      -5.099931     -5.245681      3.526688
  C      -2.936711     -6.294553     -0.080823
  H      -4.680227     -7.796063      1.309062
  C      -4.233521     -4.317873      2.949287
  H      -5.643549     -4.977541      4.439056
  C      -3.477897     -4.585169      1.751512
  H      -4.108370     -3.334075      3.416373
  C      -3.679235     -5.898851      1.176717
  O      -2.677560     -3.706495      1.234072
  C      -4.555252     -6.811248      1.775171
  H      -5.950232     -7.246572      3.387664
  H      -2.289372     -5.477714     -0.428823
  H      -2.300540     -7.179401      0.088705
  H      -3.633608     -6.543817     -0.898535
15
Coordinates from ORCA-job inp E -346.008231528485
  C      -5.276735     -6.512274      2.948083
  C      -5.098759     -5.244773      3.525974
  C      -2.935843     -6.291911     -0.080158
  H      -4.686509     -7.799756      1.315542
  C      -4.232993     -4.318317      2.947580
  H      -5.641531     -4.976187      4.438526
  C      -3.480047     -4.590630      1.748849
  H      -4.102183     -3.332915      3.408364
  C      -3.683024     -5.908058      1.175006
  O      -2.678213     -3.716648      1.227172
  C      -4.559152     -6.813607      1.778817
  H      -5.953213     -7.245294      3.393639
  H      -2.294710     -5.462085     -0.407286
  H      -2.294559     -7.175205      0.077728
  H      -3.621960     -6.538577     -0.907744
15
Coordinates from ORCA-job inp E -346.008260916800
  C      -5.277539     -6.512697      2.950226
  C      -5.098033     -5.244972      3.524400
  C      -2.935842     -6.290236     -0.079593
  H      -4.689748     -7.802474      1.320571
  C      -4.232126     -4.319250      2.944858
  H      -5.640882     -4.976075      4.436489
  C      -3.480161     -4.593866      1.748011
  H      -4.098894     -3.332602      3.401392
  C      -3.684334     -5.912386      1.174739
  O      -2.679996     -3.720957      1.225580
  C      -4.560839     -6.815546      1.781402
  H      -5.953747     -7.244139      3.397090
  H      -2.296173     -5.454653     -0.394171
  H      -2.294068     -7.174152      0.071500
  H      -3.617046     -6.532232     -0.912404
15
Coordinates from ORCA-job inp E -346.008264392903
  C      -5.277202     -6.512590      2.950618
  C      -5.097911     -5.245188      3.524000
  C      -2.935888     -6.290063     -0.079529
  H      -4.689949     -7.803498      1.322256
  C      -4.232176     -4.319512      2.943604
  H      -5.640701     -4.976463      4.436093
  C      -3.481279     -4.593798      1.747034
  H      -4.098308     -3.332564      3.399236
  C      -3.684683     -5.912770      1.174651
  O      -2.680566     -3.721222      1.226261
  C      -4.560926     -6.816201      1.781989
  H      -5.953005     -7.243951      3.398083
  H      -2.294573     -5.454283     -0.390399
  H      -2.296016     -7.175512      0.070143
  H      -3.616245     -6.528621     -0.913950
15
Coordinates from ORCA-job inp E -346.008266113292
  C      -5.276342     -6.512640      2.951134
  C      -5.098087     -5.245192      3.523864
  C      -2.935989     -6.290081     -0.079655
  H      -4.689169     -7.804517      1.323737
  C      -4.232499     -4.319570      2.942803
  H      -5.641373     -4.976441      4.435620
  C      -3.480913     -4.594110      1.747245
  H      -4.099138     -3.331991      3.397283
  C      -3.684350     -5.913053      1.174988
  O      -2.682037     -3.720536      1.225881
  C      -4.560248     -6.816899      1.782625
  H      -5.951816     -7.244154      3.398967
  H      -2.290959     -5.455645     -0.386675
  H      -2.300132     -7.178690      0.067974
  H      -3.616379     -6.522717     -0.915701
