8
Coordinates from ORCA-job inp E -452.033059138833
  C      -3.091171     -2.902271      0.333862
  C      -4.568904     -3.398492      0.299112
  F      -2.275744     -3.880984     -0.160814
  F      -2.868614     -1.808820     -0.435777
  F      -2.637027     -2.636153      1.582960
  O      -5.423061     -2.491705      0.777338
  H      -4.529523     -4.372416      0.813493
  H      -4.711176     -3.721555     -0.744898
8
Coordinates from ORCA-job inp E -452.035806128974
  C      -3.095047     -2.923826      0.325148
  C      -4.570953     -3.391993      0.302099
  F      -2.243603     -3.890595     -0.169676
  F      -2.878869     -1.807491     -0.424765
  F      -2.649286     -2.630852      1.578130
  O      -5.431391     -2.477551      0.782896
  H      -4.524171     -4.381103      0.843020
  H      -4.711900     -3.708984     -0.771576
8
Coordinates from ORCA-job inp E -452.036053147266
  C      -3.101073     -2.931460      0.322498
  C      -4.570622     -3.390601      0.302574
  F      -2.237152     -3.890069     -0.172002
  F      -2.881946     -1.807602     -0.424972
  F      -2.652111     -2.634383      1.579062
  O      -5.432531     -2.476438      0.781719
  H      -4.520126     -4.379404      0.855036
  H      -4.709660     -3.702440     -0.778639
8
Coordinates from ORCA-job inp E -452.036081435710
  C      -3.103320     -2.933757      0.321691
  C      -4.570213     -3.390582      0.302437
  F      -2.236676     -3.888540     -0.172868
  F      -2.882003     -1.806944     -0.425672
  F      -2.651652     -2.636857      1.580307
  O      -5.433078     -2.477560      0.779842
  H      -4.519237     -4.377259      0.858918
  H      -4.709041     -3.700896     -0.779379
8
Coordinates from ORCA-job inp E -452.036085618498
  C      -3.103439     -2.934432      0.321356
  C      -4.569980     -3.390798      0.302243
  F      -2.237135     -3.887744     -0.173331
  F      -2.881695     -1.806221     -0.425539
  F      -2.651041     -2.637710      1.580850
  O      -5.433379     -2.478142      0.778722
  H      -4.519417     -4.376160      0.859786
  H      -4.709133     -3.701189     -0.778811
8
Coordinates from ORCA-job inp E -452.036086738122
  C      -3.103083     -2.934769      0.321119
  C      -4.569849     -3.390963      0.302101
  F      -2.237558     -3.887289     -0.173659
  F      -2.881528     -1.805670     -0.425153
  F      -2.650690     -2.638058      1.581073
  O      -5.433568     -2.478232      0.778068
  H      -4.519651     -4.375656      0.860111
  H      -4.709293     -3.701759     -0.778384
8
Coordinates from ORCA-job inp E -452.036086921709
  C      -3.102842     -2.934873      0.321020
  C      -4.569824     -3.390998      0.302059
  F      -2.237697     -3.887160     -0.173739
  F      -2.881529     -1.805516     -0.424958
  F      -2.650660     -2.638106      1.581093
  O      -5.433600     -2.478108      0.777944
  H      -4.519705     -4.375624      0.860190
  H      -4.709364     -3.702010     -0.778334
