7
 energy: -22.279137585642 gnorm: 0.000991205495 xtb: 6.7.1 (edcfbbe)
C           -0.27791993699252       -0.91309089627414        0.90804863618733
C           -0.39490241876009       -0.77663118257767       -0.73006858057925
Cl          -1.85181777555475       -1.25049636457631        1.63656586834868
H            0.38096409345552       -1.74563778784905        1.16581870111614
Cl           0.40426328601215        0.54116768036939        1.64765373190124
O           -1.07521615612073        0.14772796884167       -1.13317086255716
O            0.24732101261214       -1.66192710835833       -1.27905665626282
