14
 energy: -17.482255353262 gnorm: 0.000651074887 xtb: 6.7.1 (edcfbbe)
C           -3.79563463121532       -3.92817171931817       -2.82590977936689
C           -4.25479050970339       -2.43911320890213       -2.89228210642613
O           -3.24947570056450       -1.56328828094776       -2.77593621548130
H           -4.63406342486412       -4.60146888947200       -2.99334013416521
C           -5.38710460763091       -2.25535009464333       -1.82841076415087
H           -4.77732052115536       -2.33002014750520       -3.91455206062096
H           -3.03329664365057       -4.09698171761702       -3.58322463547426
C           -6.01166319048670       -0.87261134863701       -1.91580704887969
H           -3.35784160738357       -4.11793715350787       -1.84806159392138
H           -6.14480091056105       -3.03074027679985       -1.97232040035709
H           -4.92713313728357       -2.38850333251366       -0.84543078996561
H           -6.55320723719339       -0.76480577419606       -2.85381534453508
H           -6.68926410341346       -0.69000802315214       -1.08417413641310
H           -5.20853770701084       -0.13725386561151       -1.90140156815994
