14
tb_lite_results_shiftn0p1.json_gp157_b0_rot0 Î”E=-14.165 kcal/mol
C -3.760217 -3.324978 0.356941
C -5.256020 -3.655071 0.783567
C -5.559636 -5.159989 0.369648
O -5.455168 -3.450559 2.041294
9 -2.886986 -4.091478 0.985313
9 -3.590165 -3.481696 -0.954212
9 -3.503305 -2.058284 0.647445
9 -4.763252 -6.012975 0.988806
9 -5.420962 -5.332644 -0.943236
9 -6.815139 -5.443909 0.682371
H -5.892339 -3.035816 0.104268
O -5.951722 -0.861712 2.537847
H -5.774307 -1.786687 2.360433
H -5.101294 -0.432641 2.442342
