5
Coordinates from ORCA-job inp E -132.126890619404
  N      -8.594345     -3.318033     -1.809938
  C      -7.679120     -2.607653     -1.804199
  C      -6.655903     -1.813217     -1.797904
  H      -5.751163     -2.095725     -1.277063
  H      -6.701649     -0.863654     -2.313525
5
Coordinates from ORCA-job inp E -132.135193180068
  N      -8.643036     -3.356684     -1.809833
  C      -7.701971     -2.624608     -1.804671
  C      -6.637552     -1.798723     -1.797980
  H      -5.723124     -2.077843     -1.274848
  H      -6.676496     -0.840424     -2.315297
5
Coordinates from ORCA-job inp E -132.135667884149
  N      -8.654217     -3.366225     -1.809499
  C      -7.709914     -2.630011     -1.805025
  C      -6.632069     -1.794218     -1.798139
  H      -5.717225     -2.072310     -1.275302
  H      -6.668753     -0.835517     -2.314665
5
Coordinates from ORCA-job inp E -132.135699621837
  N      -8.656096     -3.368383     -1.809191
  C      -7.712547     -2.631455     -1.805262
  C      -6.630417     -1.792732     -1.798297
  H      -5.716200     -2.071484     -1.275305
  H      -6.666919     -0.834229     -2.314575
5
Coordinates from ORCA-job inp E -132.135702765707
  N      -8.655737     -3.368621     -1.808958
  C      -7.713142     -2.631482     -1.805408
  C      -6.629992     -1.792255     -1.798440
  H      -5.716407     -2.072022     -1.275096
  H      -6.666902     -0.833902     -2.314727
5
Coordinates from ORCA-job inp E -132.135703841243
  N      -8.655100     -3.368657     -1.808720
  C      -7.713281     -2.631148     -1.805538
  C      -6.629760     -1.791940     -1.798620
  H      -5.716842     -2.072846     -1.274819
  H      -6.667197     -0.833692     -2.314932
5
Coordinates from ORCA-job inp E -132.135704365381
  N      -8.654581     -3.368727     -1.808509
  C      -7.713252     -2.630731     -1.805633
  C      -6.629600     -1.791724     -1.798827
  H      -5.717268     -2.073589     -1.274561
  H      -6.667480     -0.833510     -2.315099
5
Coordinates from ORCA-job inp E -132.135704678968
  N      -8.654264     -3.368856     -1.808341
  C      -7.713204     -2.630377     -1.805684
  C      -6.629481     -1.791609     -1.799066
  H      -5.717594     -2.074104     -1.274354
  H      -6.667637     -0.833336     -2.315184
