!OPT PBE def2-TZVP CPCM(water)

*xyz -1 1
C     -3.825632   -4.084550    1.870483
C     -2.915819   -3.078776    2.591667
H     -3.527946   -4.232496    0.823855
H     -3.816839   -5.069668    2.355567
H     -4.865096   -3.734460    1.865671
C     -3.371687   -2.911310    4.048910
H     -4.402046   -2.537760    4.093316
C     -2.957959   -1.723247    1.870424
H     -3.346323   -3.860512    4.600427
H     -2.743421   -2.197034    4.597547
O     -1.676905   -3.533929    2.578486
H     -3.975971   -1.314761    1.869759
H     -2.309815   -0.979447    2.352650
H     -2.639796   -1.804221    0.822572
*
