8
tb_lite_results_shiftn0p2.json_gp75_b0_rot0 Î”E=-15.482 kcal/mol
N -8.654264 -3.368856 -1.808341
C -7.713204 -2.630377 -1.805684
C -6.629481 -1.791609 -1.799066
H -5.717594 -2.074104 -1.274354
H -6.667637 -0.833336 -2.315184
O -10.953634 -3.368856 -0.555781
H -10.112006 -3.368856 -1.014250
H -11.163514 -2.441856 -0.441450
