8
tb_lite_results_shiftn0p2.json_gp36_b0_rot90 Î”E=-15.484 kcal/mol
N -8.654264 -3.368856 -1.808341
C -7.713204 -2.630377 -1.805684
C -6.629481 -1.791609 -1.799066
H -5.717594 -2.074104 -1.274354
H -6.667637 -0.833336 -2.315184
O -10.462061 -3.934319 -0.000544
H -9.800362 -3.727345 -0.662244
H -9.987052 -3.904168 0.830062
