8
tb_lite_results_shiftn0p15.json_gp45_b0_rot270 Î”E=-15.516 kcal/mol
N -8.654264 -3.368856 -1.808341
C -7.713204 -2.630377 -1.805684
C -6.629481 -1.791609 -1.799066
H -5.717594 -2.074104 -1.274354
H -6.667637 -0.833336 -2.315184
O -9.230524 -5.211175 -3.650660
H -9.023551 -4.549475 -2.988960
H -8.642118 -5.012782 -4.379266
