8
tb_lite_results_shiftn0p25.json_gp58_b0_rot270 Î”E=-15.421 kcal/mol
N -8.654264 -3.368856 -1.808341
C -7.713204 -2.630377 -1.805684
C -6.629481 -1.791609 -1.799066
H -5.717594 -2.074104 -1.274354
H -6.667637 -0.833336 -2.315184
O -9.670552 -5.497468 -2.824629
H -9.291323 -4.703175 -2.445401
H -9.398318 -5.477733 -3.742207
