8
tb_lite_results_shiftn0p25.json_gp45_b0_rot270 Î”E=-15.581 kcal/mol
N -8.654264 -3.368856 -1.808341
C -7.713204 -2.630377 -1.805684
C -6.629481 -1.791609 -1.799066
H -5.717594 -2.074104 -1.274354
H -6.667637 -0.833336 -2.315184
O -9.208928 -5.142133 -3.581617
H -9.001955 -4.480433 -2.919918
H -8.620522 -4.943739 -4.310224
