8
tb_lite_results_shiftn0p2.json_gp58_b0_rot270 Î”E=-15.439 kcal/mol
N -8.654264 -3.368856 -1.808341
C -7.713204 -2.630377 -1.805684
C -6.629481 -1.791609 -1.799066
H -5.717594 -2.074104 -1.274354
H -6.667637 -0.833336 -2.315184
O -9.690337 -5.538906 -2.844414
H -9.311108 -4.744613 -2.465185
H -9.418102 -5.519171 -3.761992
