13
 energy: -23.718488689684 gnorm: 0.000732691727 xtb: 6.7.1 (edcfbbe)
C           -6.31986823959310       -3.53829261853595        2.05618904765736
C           -5.98878501687333       -4.01613679249807        0.74755198510262
O           -9.40886561311054       -5.33821526368417        2.93363820144668
H           -7.64183109155208       -3.58395720446392        3.74382758522217
C           -6.90844029036039       -4.98195306120245        0.23026170214951
O           -4.97632884857717       -3.62108129993678        0.10705763023638
C           -8.01069382353985       -5.40750758128996        0.93578395228307
H           -9.86139175861341       -5.98034500196332        2.37690338522255
C           -8.28215639363008       -4.90945449363094        2.20117149122562
H           -8.68533892710602       -6.14698933411979        0.50022102405531
C           -7.42352792811809       -3.96942660249057        2.75349133528978
H           -5.65975274718480       -2.80311643638541        2.50341334525970
H           -6.71683984964357       -5.38598377947002       -0.75792482199465
