!SP HF def2-SVP CPCM(water)

*xyz -1 1
C           -0.23500286415981       -0.96774480098512        1.53052034057789
C           -0.42493347762564       -0.74336725895159       -1.53796872580231
Cl          -1.88448664182743       -1.22745371379305        1.81719314449317
H            0.42495548254918       -1.80661007322228        1.66823022128167
Cl           0.40239361015710        0.57337471153445        1.82908561408633
O           -1.10790727648458        0.17171863626229       -1.47741993740330
O            0.25769516739119       -1.65882250084469       -1.61386865723347
*
