17
tb_lite_results_shiftn0p3.json_gp201_b0_rot0 Î”E=-20.778 kcal/mol
C -3.787834 -3.926379 -2.832330
C -4.258715 -2.451691 -2.906229
O -3.230239 -1.562768 -2.791404
H -4.614371 -4.648341 -2.961586
C -5.380992 -2.247857 -1.846763
H -4.805964 -2.370254 -3.903755
H -3.033855 -4.120377 -3.611801
C -6.011062 -0.859618 -1.907895
H -3.314397 -4.110870 -1.851829
H -6.161957 -3.021406 -1.972175
H -4.925596 -2.408084 -0.850455
H -6.521900 -0.701855 -2.872608
H -6.749132 -0.695413 -1.107873
H -5.227830 -0.091639 -1.818259
O -2.042736 -1.562768 -0.611463
H -2.501205 -1.562768 -1.453091
H -1.928406 -0.635768 -0.401584
