4
 energy: -8.755723825925 gnorm: 0.000608777279 xtb: 6.7.1 (edcfbbe)
N           -8.58858159619311       -3.29952243524670       -1.82775720557050
C           -7.62348398104978       -2.63146833721111       -1.76824739089030
N           -6.67393599112002       -1.79519257793452       -1.80269774524862
H           -5.83917530290919       -2.09784196137147       -1.31413624231707
