15
 energy: -19.522790330391 gnorm: 0.000390866909 xtb: 6.7.1 (edcfbbe)
C           -4.88099451060047       -2.73998149701614        2.26021474194567
C           -6.05283847158699       -3.20769278627099        3.06921648014491
H           -4.73164955766248       -1.65021907914243        2.31869724390026
H           -3.93398031308373       -3.20704911204777        2.57292536823264
H           -5.06638192104132       -3.00358445840184        1.22053995112198
C           -7.12569514270925       -3.83455497821116        2.51392892875834
H           -6.01507190488203       -3.02158840257510        4.13900342951749
H           -8.21992073854045       -3.64612585794145        4.40784039281192
C           -8.23835239836322       -4.27128776267033        3.50906643669089
H           -9.20965416835103       -4.14620437455779        3.01972047507103
C           -8.05803953771230       -5.73597357353109        3.89396120375699
O           -7.30975198221194       -4.11608427142205        1.28993012360904
H           -7.10624388554854       -5.87196726144257        4.40653446346118
H           -8.86086333802253       -6.09029444904685        4.54936998744775
H           -8.04869180296193       -6.34624000235878        2.99283908740097
