!OPT PBE def2-TZVP CPCM(water)

*xyz -1 1
C     -4.201054   -4.134837   -3.290092
C     -2.903445   -4.645638   -3.215752
H     -3.776010   -1.282679   -1.500208
C     -4.532245   -2.926779   -2.657985
H     -4.967911   -4.660161   -3.852502
C     -1.919176   -3.951363   -2.513110
H     -2.665768   -5.578049   -3.716508
C     -2.230246   -2.742696   -1.890706
H     -0.908796   -4.343224   -2.463174
C     -3.528531   -2.234156   -1.963751
H     -1.466768   -2.186415   -1.358065
C     -5.961328   -2.380223   -2.716904
H     -6.612421   -3.269713   -2.747116
H     -6.171554   -2.028413   -1.692988
O     -6.025030   -1.513925   -3.716313
*
