15
Coordinates from ORCA-job inp E -345.964181937271
  C      -4.201054     -4.134837     -3.290092
  C      -2.903445     -4.645638     -3.215752
  H      -3.776010     -1.282679     -1.500208
  C      -4.532245     -2.926779     -2.657985
  H      -4.967911     -4.660161     -3.852502
  C      -1.919176     -3.951363     -2.513110
  H      -2.665768     -5.578049     -3.716508
  C      -2.230246     -2.742696     -1.890706
  H      -0.908796     -4.343224     -2.463174
  C      -3.528531     -2.234156     -1.963751
  H      -1.466768     -2.186415     -1.358065
  C      -5.961328     -2.380223     -2.716904
  H      -6.612421     -3.269713     -2.747116
  H      -6.171554     -2.028413     -1.692988
  O      -6.025030     -1.513925     -3.716313
15
Coordinates from ORCA-job inp E -345.968790682745
  C      -4.200681     -4.150091     -3.269149
  C      -2.892245     -4.646341     -3.225130
  H      -3.783478     -1.305752     -1.453104
  C      -4.540004     -2.947990     -2.626484
  H      -4.977662     -4.694336     -3.813937
  C      -1.900742     -3.944537     -2.533092
  H      -2.651505     -5.586557     -3.727204
  C      -2.220676     -2.740500     -1.896584
  H      -0.881250     -4.333556     -2.490243
  C      -3.530116     -2.250339     -1.943541
  H      -1.452553     -2.183106     -1.355198
  C      -5.959497     -2.367946     -2.731800
  H      -6.646279     -3.266649     -2.782185
  H      -6.195648     -1.973135     -1.696051
  O      -6.037948     -1.487435     -3.751472
15
Coordinates from ORCA-job inp E -345.969429252722
  C      -4.201288     -4.156032     -3.258401
  C      -2.889592     -4.646146     -3.227510
  H      -3.788230     -1.325166     -1.422819
  C      -4.544525     -2.957309     -2.612849
  H      -4.981295     -4.711930     -3.789083
  C      -1.893563     -3.938552     -2.545532
  H      -2.646716     -5.586385     -3.730253
  C      -2.219497     -2.741298     -1.896131
  H      -0.870544     -4.321078     -2.513034
  C      -3.532833     -2.260245     -1.932167
  H      -1.450546     -2.186011     -1.351947
  C      -5.954626     -2.365193     -2.737324
  H      -6.654275     -3.260265     -2.798984
  H      -6.196550     -1.937225     -1.709957
  O      -6.046203     -1.485434     -3.769183
15
Coordinates from ORCA-job inp E -345.969548258310
  C      -4.201568     -4.156843     -3.255704
  C      -2.889506     -4.645118     -3.228756
  H      -3.789541     -1.333703     -1.409786
  C      -4.546741     -2.960098     -2.608378
  H      -4.981307     -4.716602     -3.782596
  C      -1.892339     -3.936674     -2.548770
  H      -2.644918     -5.583529     -3.733454
  C      -2.220437     -2.742587     -1.893955
  H      -0.868018     -4.315289     -2.522426
  C      -3.534518     -2.264466     -1.926978
  H      -1.450895     -2.188820     -1.349604
  C      -5.952556     -2.366825     -2.736475
  H      -6.655809     -3.257400     -2.799078
  H      -6.191221     -1.915984     -1.719932
  O      -6.050908     -1.494334     -3.779284
15
Coordinates from ORCA-job inp E -345.969588331470
  C      -4.201672     -4.155947     -3.256037
  C      -2.889801     -4.643588     -3.230386
  H      -3.789722     -1.337341     -1.403522
  C      -4.547973     -2.960669     -2.606656
  H      -4.980279     -4.716056     -3.783899
  C      -1.892636     -3.936086     -2.549300
  H      -2.644028     -5.580344     -3.737028
  C      -2.221490     -2.743783     -1.891697
  H      -0.867909     -4.313099     -2.525642
  C      -3.535664     -2.266561     -1.923632
  H      -1.451479     -2.191294     -1.347243
  C      -5.952327     -2.369475     -2.733630
  H      -6.656811     -3.256162     -2.791149
  H      -6.185618     -1.900766     -1.727274
  O      -6.052874     -1.507100     -3.788079
15
Coordinates from ORCA-job inp E -345.969601830922
  C      -4.201748     -4.154851     -3.257071
  C      -2.889956     -4.642054     -3.232197
  H      -3.789859     -1.338896     -1.400061
  C      -4.548570     -2.960694     -2.605492
  H      -4.979411     -4.713853     -3.787295
  C      -1.893054     -3.935762     -2.549386
  H      -2.643613     -5.577674     -3.740488
  C      -2.222108     -2.744689     -1.889982
  H      -0.868301     -4.312559     -2.526378
  C      -3.536416     -2.267749     -1.920978
  H      -1.451866     -2.193037     -1.345185
  C      -5.952832     -2.371467     -2.731323
  H      -6.658378     -3.255627     -2.780882
  H      -6.181980     -1.890165     -1.732185
  O      -6.052189     -1.519193     -3.796271
15
Coordinates from ORCA-job inp E -345.969606541967
  C      -4.201851     -4.154210     -3.257653
  C      -2.889950     -4.640879     -3.233712
  H      -3.790345     -1.340241     -1.397023
  C      -4.548839     -2.960874     -2.604201
  H      -4.979121     -4.712164     -3.789499
  C      -1.893143     -3.935324     -2.549827
  H      -2.643437     -5.575754     -3.743339
  C      -2.222335     -2.745354     -1.888797
  H      -0.868358     -4.312124     -2.527166
  C      -3.536932     -2.268724     -1.918608
  H      -1.452065     -2.194105     -1.343594
  C      -5.953151     -2.372373     -2.730482
  H      -6.660149     -3.255140     -2.772260
  H      -6.180141     -1.882648     -1.735617
  O      -6.050466     -1.528356     -3.803394
15
Coordinates from ORCA-job inp E -345.969608502669
  C      -4.201933     -4.153855     -3.257869
  C      -2.889877     -4.639975     -3.234936
  H      -3.791054     -1.341886     -1.393738
  C      -4.548973     -2.961182     -2.602880
  H      -4.979176     -4.711146     -3.790449
  C      -1.893009     -3.934819     -2.550495
  H      -2.643343     -5.574267     -3.745711
  C      -2.222400     -2.745953     -1.887808
  H      -0.868101     -4.311426     -2.528494
  C      -3.537323     -2.269687     -1.916418
  H      -1.452220     -2.194925     -1.342169
  C      -5.953118     -2.372637     -2.730609
  H      -6.661723     -3.254560     -2.765280
  H      -6.178907     -1.876348     -1.738626
  O      -6.049125     -1.535604     -3.809694
15
Coordinates from ORCA-job inp E -345.969609150631
  C      -4.201914     -4.153626     -3.258001
  C      -2.889810     -4.639495     -3.235598
  H      -3.791554     -1.343104     -1.391508
  C      -4.548975     -2.961326     -2.602182
  H      -4.979288     -4.710675     -3.790654
  C      -1.892853     -3.934531     -2.550913
  H      -2.643306     -5.573478     -3.746998
  C      -2.222391     -2.746365     -1.887172
  H      -0.867835     -4.310914     -2.529517
  C      -3.537491     -2.270278     -1.915167
  H      -1.452338     -2.195470     -1.341175
  C      -5.952918     -2.372575     -2.731086
  H      -6.662474     -3.254228     -2.761296
  H      -6.178040     -1.872548     -1.740539
  O      -6.049097     -1.539656     -3.813368
