15
 energy: -22.905511666485 gnorm: 0.000655560898 xtb: 6.7.1 (edcfbbe)
C           -5.18118800989840       -6.30068226153469        2.94584182198203
C           -4.99346152060857       -5.04795142372540        3.51590681439205
C           -6.10587325991840       -7.31816456029840        3.55383627285750
C           -4.47530985990653       -6.58418205392153        1.78050678913430
C           -4.14616039394375       -4.11809273529173        2.95849000364813
H           -5.52750654320768       -4.79115141577182        4.42484586232126
C           -3.41473543678734       -4.38121937845733        1.77099024348619
H           -4.01474384499828       -3.14497267064382        3.42151248302535
C           -3.62439720036395       -5.66893123083478        1.20882096126433
O           -2.61852639673922       -3.51746026926359        1.24234256845948
H           -4.59988189357503       -7.55350361236909        1.30956184661698
H           -6.57296975947147       -6.91738902953002        4.45008355670615
H           -6.88784453159777       -7.59597398222220        2.84704550320794
H           -5.55825809981302       -8.22227224695690        3.82039306508271
H           -3.08319911059822       -5.91123037473456        0.29939833131541
