11
 energy: -14.208008192897 gnorm: 0.000635464991 xtb: 6.7.1 (edcfbbe)
C           -3.70568145311527       -3.99811885403069       -2.65746160887693
C           -4.20871665139865       -2.58481053382934       -3.16024958083831
O           -3.28387646773120       -1.67604814409752       -3.24456862198636
H           -6.19656205199955       -2.98191148643072       -2.22594124637060
C           -5.42146246174971       -2.21101001126017       -2.21537647630212
H           -4.72228516826562       -2.82666133542632       -4.17604297017775
H           -5.85508687431798       -1.26851309138346       -2.54708775196482
H           -5.06009156091992       -2.08049403627972       -1.19548687564808
H           -3.31005965494491       -3.90389275503968       -1.64632547435005
H           -4.50909296929195       -4.73953217826305       -2.66120481923796
H           -2.90262681310189       -4.34310877163340       -3.30741999724568
