15
 energy: -22.814618000116 gnorm: 0.000426516629 xtb: 6.7.1 (edcfbbe)
C           -5.26292383756389       -6.50134536343269        2.93630318541836
C           -5.08015703332634       -5.24563977545035        3.49876762894276
C           -2.94451019048930       -6.28466606366326       -0.06489277683416
H           -4.69082147022546       -7.79479290419257        1.32679663048139
C           -4.22583992275827       -4.33299566273795        2.93010336579103
H           -5.62396909658293       -4.98261498885185        4.40520428720134
C           -3.48002955361431       -4.60757035948522        1.74254969018832
H           -4.09599592965972       -3.35575925003294        3.38462217013782
C           -3.69531170020741       -5.91976258008726        1.18769606350600
O           -2.69513020093798       -3.76699636324537        1.22143792654563
C           -4.55743535123478       -6.81273069521205        1.77962983312153
H           -5.93797586279005       -7.22195994232102        3.38598125376170
H           -2.33076309683161       -5.42955527023610       -0.34475111374812
H           -2.29492349149255       -7.15117585750544        0.09100914016894
H           -3.62400035212130       -6.51830853054704       -0.89000599283394
