14
 energy: -30.158677824190 gnorm: 0.000489956025 xtb: 6.7.1 (edcfbbe)
C           -2.05626358288805       -2.87367348899807        1.61181632870874
C           -2.53884073490809       -2.20722462375318        0.42389278361479
C           -3.70843445306988       -2.54457114597770       -0.17530199816696
C           -4.51633134600627       -3.57684237598447        0.34600230595267
C           -4.08497903901273       -4.25384841205401        1.50601738296746
C           -2.91659680564980       -3.92208520698178        2.11066998101579
O           -6.39585982954269       -4.83030656752676        0.21282372651764
O           -0.98137404566998       -2.56914486581434        2.16213529887176
H           -1.92255374449627       -1.41406060743922        0.02080603831515
H           -4.05356267035544       -2.03376818774918       -1.06444237318944
N           -5.70363342434285       -3.91775939873012       -0.26644189157678
H           -4.71625457957413       -5.04196746662037        1.89455025142788
O           -6.05973798590231       -3.30637269151125       -1.28697430186144
H           -2.58992687357310       -4.44382109138837        3.00087975209088
