19
 energy: -26.930470165874 gnorm: 0.000626622836 xtb: 6.7.1 (edcfbbe)
C           -5.30363544660260       -3.61859668910339        0.49824845030235
C           -6.50103186931967       -4.13155568273166        1.28431710091528
H           -2.07372682665900       -1.58182152717841        2.21813188978210
H           -1.59716136881598       -0.75665022204917        0.73089958850700
H           -3.05080176297357       -0.25093323065613        1.59787180438750
C           -7.34027456463250       -5.19116596968347        0.52050512063758
H           -6.18568269376241       -4.59994716978102        2.22061676528756
H           -7.18419423156488       -3.31684803116058        1.53884266890972
O           -6.98676118377946       -5.51532218385997       -0.63110290480672
O           -8.32876339187799       -5.65199655911716        1.13503155758853
C           -4.47929845375389       -2.60841097667322        1.29151079813143
C           -3.27624776860572       -2.09607645242430        0.50311423295124
H           -5.12063226269040       -1.76804128802177        1.56784394213191
H           -4.13615417824809       -3.08150897343166        2.21477790674708
C           -2.44502299808401       -1.10761681643832        1.31291796470744
H           -2.65702465612152       -2.94700066010128        0.21103173814603
H           -3.63056601302308       -1.61819452843079       -0.41276602116698
H           -4.68635094755380       -4.47477821988918        0.21397896537813
H           -5.66596000034841       -3.17047248998079       -0.43047080927453
