12
 energy: -18.847677353147 gnorm: 0.000367558679 xtb: 6.7.1 (edcfbbe)
C           -3.23154839833457       -2.27930881873950        0.62858409436798
C           -2.72539865421576       -3.14260151763429       -0.31464180355504
C           -3.40678271632928       -4.30529556637993       -0.65428963103928
C           -4.61315285467702       -4.58202426925164       -0.02215464214086
C           -5.12674350961458       -3.72440532008108        0.92222416141328
H           -1.78107615625472       -2.91415783747989       -0.80127787700242
C           -4.45170071480802       -2.54189427763220        1.27992036676841
H           -3.00482748299187       -4.98363430103202       -1.39833444867647
H           -2.69527996466153       -1.37491732653514        0.88850203086315
H           -6.06747151791474       -3.94623170932694        1.41098690032628
S           -5.08363099476485       -1.47545005048513        2.44966401084745
H           -5.15618009319452       -5.48769294003893       -0.27834176598376
