9
tb_lite_results_shiftn0p1.json_gp227_b0_rot90 Î”E=-15.468 kcal/mol
N -6.594616 -2.952022 3.297269
C -5.537213 -2.681622 2.527103
H -5.693341 -2.590912 1.457173
O -7.772609 -3.100628 2.778377
H -4.571222 -2.562473 3.006606
O -6.467122 -3.071968 4.581285
O -9.624593 -3.679911 4.630361
H -8.962893 -3.472938 3.968662
H -9.149583 -3.649760 5.460967
