12
tb_lite_results_shiftn0p2.json_gp217_b0_rot180 Î”E=-15.977 kcal/mol
C -5.855582 -3.955113 1.230332
C -6.716144 -5.269294 1.003937
O -6.644375 -3.069896 1.899157
H -4.890448 -4.246380 1.751527
H -5.507533 -3.601210 0.197040
H -6.508559 -6.003178 1.836941
O -8.042026 -4.819184 1.006025
H -6.437170 -5.791089 0.053142
H -7.777667 -3.878987 1.477481
O -6.644375 -0.802140 0.663817
H -6.644375 -1.643767 1.122286
H -7.458429 -0.804392 0.160069
