6
 energy: -10.128411538503 gnorm: 0.000436216903 xtb: 6.7.1 (edcfbbe)
C           -6.27957813498262       -4.18112343340668        0.82514683852607
C           -7.34521781796445       -4.59185368346131        1.53590093425851
H           -6.15706104449763       -4.46076830535849       -0.20735570188193
H           -5.51922754738914       -3.56095932064967        1.27175159212995
O           -7.64221071584539       -4.35606711701469        2.75617831024003
H           -8.08031095706839       -5.23908486164551        0.96890028506320
