6
 energy: -14.431514267346 gnorm: 0.000398746054 xtb: 6.7.1 (edcfbbe)
N           -6.57925601974848       -2.94786038222606        3.28604207463888
C           -5.55254717489698       -2.68494972608658        2.53811461406132
H           -5.70357829613893       -2.59487063251908        1.48181878618457
O           -7.74775222389933       -3.09649150015642        2.77414951192010
H           -4.59774734153506       -2.56921865889808        3.00893594596275
O           -6.45526914069154       -3.06601147264230        4.55890955142190
