9
 energy: -20.366667072024 gnorm: 0.000393430988 xtb: 6.7.1 (edcfbbe)
C           -5.30557165489882       -3.62091036054913        0.51347911979831
C           -6.47144002081383       -4.15957895746570        1.32268590653279
O           -8.36222699453919       -5.61962933163091        1.15633204278173
O           -6.62447785682218       -3.85848527247848        2.48937419544941
O           -7.13893365562539       -5.24852669071767       -0.68840845881132
C           -7.43794148560912       -5.11911034385804        0.50938265506988
H           -4.64747728383080       -3.00288180347188        1.12497965241182
H           -4.76160341291137       -4.46118220251874        0.08930736935656
H           -5.70710666315800       -3.04403260931362       -0.31663085441231
