18
tb_lite_results_shiftn0p05.json_gp799_b0_rot180 Î”E=-11.170 kcal/mol
C -2.025343 -2.807244 1.562966
C -2.533926 -2.158581 0.369275
C -3.719823 -2.522812 -0.213321
C -4.506416 -3.567219 0.342425
C -4.047924 -4.230371 1.510863
C -2.861752 -3.868290 2.095637
O -6.409849 -4.869702 0.255083
H -2.518268 -4.386423 2.995375
H -1.933676 -1.354497 -0.062793
H -4.078800 -2.018865 -1.110410
N -5.718299 -3.938116 -0.254407
H -4.656745 -5.030913 1.930882
O -6.111928 -3.338199 -1.298594
N -0.872993 -2.418065 2.087111
H -0.682716 -2.991985 2.920889
O 1.421372 -1.322639 0.991685
H 0.627079 -1.701867 1.370914
H 1.252644 -1.307434 0.049481
