8
 energy: -13.605776137901 gnorm: 0.000853478148 xtb: 6.7.1 (edcfbbe)
C           -3.82108007317220       -0.66024166580060       -0.67807108944110
C           -2.52603457819130        0.13779758469283       -0.84648238020866
N           -1.45999018535906       -0.46798263990119       -0.41617117970649
O           -2.59448915927881        1.29093318348794       -1.37842079495110
H           -4.54870095895418       -0.04967816545945       -0.14730399529068
H           -4.21961114597902       -0.89608672109504       -1.66310780690114
H           -3.61321993636298       -1.57184042048554       -0.12868863310469
H           -0.63815524097748        0.12668531171272       -0.56656671611013
