14
tb_lite_results_shiftn0p25.json_gp147_b0_rot0 Î”E=-20.362 kcal/mol
C -3.393474 -4.214997 -2.971520
C -4.161156 -2.930086 -2.564018
O -3.427416 -1.999522 -1.897204
H -5.069011 -3.306756 -1.990093
H -4.620011 -2.551271 -3.534535
C -4.237954 -5.216444 -3.758602
H -2.512743 -3.907483 -3.564476
H -3.000582 -4.684822 -2.051382
H -4.609736 -4.769213 -4.694808
H -3.672167 -6.121547 -4.026696
H -5.117537 -5.536373 -3.176503
O -1.965336 -0.537441 -3.359285
H -2.518668 -1.090774 -2.805952
H -1.292145 -0.203557 -2.766170
