14
tb_lite_results_shiftn0p2.json_gp186_b0_rot0 Î”E=-20.496 kcal/mol
C -3.393474 -4.214997 -2.971520
C -4.161156 -2.930086 -2.564018
O -3.427416 -1.999522 -1.897204
H -5.069011 -3.306756 -1.990093
H -4.620011 -2.551271 -3.534535
C -4.237954 -5.216444 -3.758602
H -2.512743 -3.907483 -3.564476
H -3.000582 -4.684822 -2.051382
H -4.609736 -4.769213 -4.694808
H -3.672167 -6.121547 -4.026696
H -5.117537 -5.536373 -3.176503
O -2.405589 -3.021350 0.243010
H -2.784817 -2.642121 -0.551283
H -2.677823 -2.429095 0.944132
