15
 energy: -19.620929450671 gnorm: 0.000497059318 xtb: 6.7.1 (edcfbbe)
C           -4.88119263776378       -2.73813614040944        2.25470439332395
C           -6.04744630349078       -3.20618616240045        3.07140269685351
H           -4.75674276591661       -1.65109933469210        2.30349507805713
H           -3.94183869127725       -3.19687989742118        2.58037892892630
H           -5.06525522681566       -3.01879857383645        1.21832232616239
C           -7.12506174069231       -3.83206354528767        2.54122877196323
H           -6.00734952045744       -3.01969528894370        4.13910480364725
H           -8.20921410287429       -3.64916501962723        4.40874570848723
C           -8.23246357367630       -4.27560268689408        3.51376781389424
H           -9.19598132171125       -4.13885673775788        3.01337963824657
C           -8.06075926729646       -5.74301086875680        3.89421255487982
O           -7.30131312428722       -4.11172306144930        1.28852359056391
H           -7.11319287192467       -5.88071526770455        4.41114144025366
H           -8.87306657618419       -6.07960157766396        4.53643630702551
H           -8.04725194891003       -6.34731370379152        2.98894426158632
