!OPT PBE D3BJ def2-TZVP CPCM(water)

*xyz -1 1
C     -3.790873   -3.915288   -2.859790
C     -4.268123   -2.451639   -2.934392
O     -3.212619   -1.688049   -2.704699
H     -4.635407   -4.599774   -3.003980
C     -5.317258   -2.207753   -1.819293
H     -4.809351   -2.368257   -3.888180
H     -3.055097   -4.138511   -3.643244
C     -6.020514   -0.856422   -1.930185
H     -3.335487   -4.159480   -1.890841
H     -6.088612   -2.987090   -1.883029
H     -4.871821   -2.300455   -0.818569
H     -6.490114   -0.738839   -2.912056
H     -6.804092   -0.778997   -1.169471
H     -5.324476   -0.025998   -1.777232
*
