14
Coordinates from ORCA-job inp E -232.946669649002
  C      -3.790873     -3.915288     -2.859790
  C      -4.268123     -2.451639     -2.934392
  O      -3.212619     -1.688049     -2.704699
  H      -4.635407     -4.599774     -3.003980
  C      -5.317258     -2.207753     -1.819293
  H      -4.809351     -2.368257     -3.888180
  H      -3.055097     -4.138511     -3.643244
  C      -6.020514     -0.856422     -1.930185
  H      -3.335487     -4.159480     -1.890841
  H      -6.088612     -2.987090     -1.883029
  H      -4.871821     -2.300455     -0.818569
  H      -6.490114     -0.738839     -2.912056
  H      -6.804092     -0.778997     -1.169471
  H      -5.324476     -0.025998     -1.777232
14
Coordinates from ORCA-job inp E -232.955005650276
  C      -3.795524     -3.932421     -2.854122
  C      -4.242324     -2.444066     -2.908266
  O      -3.185859     -1.605527     -2.752984
  H      -4.647099     -4.630235     -2.995428
  C      -5.331689     -2.219513     -1.817554
  H      -4.810809     -2.359577     -3.881125
  H      -3.060574     -4.145310     -3.646411
  C      -6.022928     -0.857975     -1.925904
  H      -3.327547     -4.168478     -1.885445
  H      -6.110014     -3.007458     -1.891915
  H      -4.878672     -2.320764     -0.817367
  H      -6.484027     -0.729833     -2.917767
  H      -6.817118     -0.760424     -1.169832
  H      -5.309659     -0.034971     -1.770842
14
Coordinates from ORCA-job inp E -232.956071429901
  C      -3.793884     -3.933294     -2.844309
  C      -4.248561     -2.448946     -2.902904
  O      -3.208305     -1.572633     -2.787874
  H      -4.632067     -4.643606     -2.980076
  C      -5.352979     -2.234508     -1.828279
  H      -4.818137     -2.368131     -3.886346
  H      -3.051858     -4.134054     -3.634132
  C      -6.015175     -0.858498     -1.917912
  H      -3.319404     -4.146688     -1.870644
  H      -6.134894     -3.014905     -1.917758
  H      -4.892207     -2.356618     -0.830454
  H      -6.475329     -0.710027     -2.908941
  H      -6.804808     -0.737701     -1.159378
  H      -5.276237     -0.056943     -1.765953
14
Coordinates from ORCA-job inp E -232.956229024095
  C      -3.791274     -3.931255     -2.837602
  C      -4.255722     -2.453171     -2.904385
  O      -3.224368     -1.564030     -2.805869
  H      -4.621367     -4.648873     -2.969055
  C      -5.366421     -2.241700     -1.836858
  H      -4.819465     -2.375249     -3.894465
  H      -3.043514     -4.126249     -3.623185
  C      -6.010885     -0.858240     -1.911261
  H      -3.314995     -4.128100     -1.860663
  H      -6.149493     -3.016844     -1.938686
  H      -4.903096     -2.380537     -0.840883
  H      -6.476015     -0.697332     -2.898373
  H      -6.792025     -0.723262     -1.146794
  H      -5.255206     -0.071712     -1.766881
14
Coordinates from ORCA-job inp E -232.956263479050
  C      -3.790109     -3.929377     -2.834579
  C      -4.258845     -2.454305     -2.906427
  O      -3.229729     -1.563897     -2.809011
  H      -4.617822     -4.649669     -2.963594
  C      -5.372139     -2.244041     -1.841213
  H      -4.817207     -2.376715     -3.899723
  H      -3.039604     -4.123126     -3.617537
  C      -6.009850     -0.858385     -1.908195
  H      -3.313741     -4.118582     -1.856165
  H      -6.154718     -3.017944     -1.950757
  H      -4.909219     -2.391963     -0.846028
  H      -6.483167     -0.693949     -2.890917
  H      -6.782344     -0.715811     -1.136753
  H      -5.245350     -0.078787     -1.774063
14
Coordinates from ORCA-job inp E -232.956284323900
  C      -3.789217     -3.927552     -2.832415
  C      -4.260553     -2.454070     -2.908130
  O      -3.232241     -1.564467     -2.805891
  H      -4.615842     -4.649506     -2.959490
  C      -5.376788     -2.245743     -1.844848
  H      -4.813086     -2.375569     -3.904002
  H      -3.036584     -4.121210     -3.613135
  C      -6.009735     -0.858847     -1.906320
  H      -3.313290     -4.111212     -1.852855
  H      -6.158291     -3.019519     -1.962459
  H      -4.915768     -2.401719     -0.850063
  H      -6.496074     -0.694124     -2.882648
  H      -6.769907     -0.707817     -1.124637
  H      -5.236467     -0.085198     -1.788068
14
Coordinates from ORCA-job inp E -232.956293897942
  C      -3.788624     -3.926628     -2.831754
  C      -4.260462     -2.453039     -2.908207
  O      -3.232177     -1.564168     -2.799606
  H      -4.615037     -4.649051     -2.958563
  C      -5.379480     -2.246843     -1.846552
  H      -4.809361     -2.373131     -3.905318
  H      -3.035022     -4.120570     -3.611461
  C      -6.010187     -0.859313     -1.906240
  H      -3.313463     -4.108664     -1.851622
  H      -6.160251     -3.020804     -1.969347
  H      -4.920812     -2.406841     -0.851520
  H      -6.508612     -0.696848     -2.876797
  H      -6.759336     -0.701422     -1.115417
  H      -5.231020     -0.089232     -1.802557
14
Coordinates from ORCA-job inp E -232.956298519387
  C      -3.788109     -3.926309     -2.831951
  C      -4.259494     -2.452005     -2.907165
  O      -3.231075     -1.563300     -2.793501
  H      -4.614574     -4.648586     -2.959859
  C      -5.380903     -2.247628     -1.847000
  H      -4.806660     -2.370882     -3.904735
  H      -3.034162     -4.120392     -3.611377
  C      -6.010773     -0.859616     -1.907127
  H      -3.313938     -4.109226     -1.851537
  H      -6.161529     -3.021510     -1.972417
  H      -4.924476     -2.408696     -0.851279
  H      -6.518600     -0.700216     -2.873226
  H      -6.751458     -0.696707     -1.109333
  H      -5.228092     -0.091480     -1.814454
14
Coordinates from ORCA-job inp E -232.956299871315
  C      -3.787834     -3.926379     -2.832330
  C      -4.258714     -2.451691     -2.906229
  O      -3.230239     -1.562768     -2.791404
  H      -4.614371     -4.648341     -2.961586
  C      -5.380992     -2.247857     -1.846763
  H      -4.805964     -2.370254     -3.903755
  H      -3.033855     -4.120377     -3.611801
  C      -6.011062     -0.859618     -1.907895
  H      -3.314397     -4.110870     -1.851829
  H      -6.161957     -3.021406     -1.972175
  H      -4.925596     -2.408084     -0.850455
  H      -6.521900     -0.701855     -2.872608
  H      -6.749132     -0.695413     -1.107873
  H      -5.227830     -0.091639     -1.818259
