7
 energy: -26.880017489341 gnorm: 0.000266819811 xtb: 6.7.1 (edcfbbe)
C           -1.55137397069600       -0.14711788490560        0.45474929512297
C           -2.43401554394238        1.18878697524566        0.05053733712976
F           -2.17995502069108       -1.30837213629946        0.12255723961093
F           -0.33949970445839       -0.21578521388829       -0.15171735117014
F           -1.28745784733062       -0.25548863321314        1.78142745084780
O           -3.19586959915672        1.53427587888009        0.93724132508762
O           -2.18289336787609        1.59681968555907       -1.07033349753906
