7
 energy: -18.223436489568 gnorm: 0.010439465784 xtb: 6.7.1 (edcfbbe)
C           -0.23426639877480       -0.79999098634542        0.93577690951264
C           -0.40357852870274       -0.76781521492591       -0.67001290127830
Cl          -1.69809881160723       -1.29389960351677        1.79731374960910
H            0.54240406824201       -1.51784815651132        1.20612360305062
H            0.01672374449031        0.19916850613605        1.29668899925086
O           -0.70819818495490        0.33567359357887       -1.11970813833808
O           -0.08229478404091       -1.81417582883480       -1.23039138364914
