9
Coordinates from ORCA-job inp E -192.448223436504
  H      -5.141852     -2.527156     -0.913255
  C      -4.206434     -2.397747     -2.921383
  O      -3.013294     -2.169682     -2.402077
  H      -6.768487     -0.749142     -1.182789
  C      -5.191129     -1.979283     -1.851632
  C      -6.099039     -1.003051     -1.993836
  H      -6.152454     -0.434832     -2.914841
  H      -4.488895     -1.876740     -3.849828
  H      -4.486125     -3.434380     -3.167911
9
Coordinates from ORCA-job inp E -192.454180910009
  H      -5.158489     -2.533650     -0.905814
  C      -4.199130     -2.401103     -2.905732
  O      -2.954942     -2.181612     -2.422209
  H      -6.770321     -0.705767     -1.159752
  C      -5.224551     -1.994181     -1.857662
  C      -6.118489     -0.996528     -1.987914
  H      -6.185970     -0.431165     -2.921551
  H      -4.478833     -1.856897     -3.854915
  H      -4.456983     -3.471110     -3.182003
9
Coordinates from ORCA-job inp E -192.454840955367
  H      -5.157648     -2.530191     -0.902886
  C      -4.200739     -2.401650     -2.898450
  O      -2.933892     -2.201442     -2.438973
  H      -6.779079     -0.698827     -1.162006
  C      -5.232805     -1.994595     -1.859180
  C      -6.120657     -0.993348     -1.984667
  H      -6.200393     -0.434114     -2.923026
  H      -4.472168     -1.839795     -3.846450
  H      -4.450328     -3.478051     -3.181913
9
Coordinates from ORCA-job inp E -192.454946402829
  H      -5.153097     -2.526459     -0.901536
  C      -4.203240     -2.401700     -2.896330
  O      -2.926760     -2.214526     -2.448672
  H      -6.787213     -0.700273     -1.167468
  C      -5.232966     -1.992625     -1.859063
  C      -6.120972     -0.993662     -1.983701
  H      -6.204440     -0.434858     -2.922255
  H      -4.468403     -1.830076     -3.840036
  H      -4.450618     -3.477834     -3.178491
9
Coordinates from ORCA-job inp E -192.454966805805
  H      -5.149049     -2.524219     -0.900722
  C      -4.204654     -2.401560     -2.896626
  O      -2.925202     -2.221329     -2.451934
  H      -6.791645     -0.702000     -1.171038
  C      -5.230903     -1.990970     -1.858354
  C      -6.121418     -0.995162     -1.983782
  H      -6.205620     -0.435498     -2.921719
  H      -4.465959     -1.825403     -3.837039
  H      -4.453258     -3.475873     -3.176337
9
Coordinates from ORCA-job inp E -192.454970927782
  H      -5.146591     -2.523160     -0.900214
  C      -4.205117     -2.401437     -2.897381
  O      -2.925114     -2.224240     -2.452087
  H      -6.793284     -0.702452     -1.172530
  C      -5.229306     -1.990160     -1.857746
  C      -6.121908     -0.996390     -1.984006
  H      -6.206445     -0.436328     -2.921644
  H      -4.464327     -1.823360     -3.836096
  H      -4.455617     -3.474487     -3.175847
9
Coordinates from ORCA-job inp E -192.454971448605
  H      -5.145622     -2.522780     -0.899958
  C      -4.205110     -2.401391     -2.897740
  O      -2.925104     -2.225121     -2.451521
  H      -6.793521     -0.702182     -1.172784
  C      -5.228770     -1.989958     -1.857477
  C      -6.122200     -0.996877     -1.984078
  H      -6.207172     -0.436980     -2.921785
  H      -4.463471     -1.822683     -3.835978
  H      -4.456740     -3.474041     -3.176231
