11
tb_lite_results_shiftn0p1.json_gp369_b0_rot90 Î”E=-13.078 kcal/mol
C -2.168401 1.506987 0.020239
C -0.720111 1.732088 -0.379808
H -2.223678 0.987163 0.973759
H -2.689288 2.456816 0.114827
H -2.670914 0.906358 -0.735091
S 0.172444 2.726494 0.828597
H -0.184463 0.785203 -0.465465
H -0.653253 2.259779 -1.332714
O -1.021905 1.532146 3.330154
H -0.642676 1.911375 2.535861
H -0.348205 1.655387 3.999027
