11
tb_lite_results_shiftn0p15.json_gp363_b0_rot90 Î”E=-13.007 kcal/mol
C -2.168401 1.506987 0.020239
C -0.720111 1.732088 -0.379808
H -2.223678 0.987163 0.973759
H -2.689288 2.456816 0.114827
H -2.670914 0.906358 -0.735091
S 0.172444 2.726494 0.828597
H -0.184463 0.785203 -0.465465
H -0.653253 2.259779 -1.332714
O -0.468604 0.677050 2.878041
H -0.261630 1.338749 2.216342
H 0.119803 0.875443 3.606648
