11
tb_lite_results_shiftn0p05.json_gp348_b0_rot90 Î”E=-12.952 kcal/mol
C -2.168401 1.506987 0.020239
C -0.720111 1.732088 -0.379808
H -2.223678 0.987163 0.973759
H -2.689288 2.456816 0.114827
H -2.670914 0.906358 -0.735091
S 0.172444 2.726494 0.828597
H -0.184463 0.785203 -0.465465
H -0.653253 2.259779 -1.332714
O -1.946043 4.844981 1.491240
H -1.284344 4.183281 1.284266
H -1.910861 4.928227 2.444278
