13
 energy: -23.724048477787 gnorm: 0.000722729298 xtb: 6.7.1 (edcfbbe)
C           -6.30438794504849       -3.53811668394908        2.03577640909548
C           -6.03470787796728       -4.02965763343438        0.78455911311089
O           -9.36827752014619       -5.32316201507906        2.90654559743627
H           -7.62872476046430       -3.56957775679511        3.75232520288623
C           -6.87233758181575       -5.00149527544080        0.14651425064900
H           -5.16224682627465       -3.68505804907881        0.24017368951982
C           -8.00099484738533       -5.40370561905252        0.92966958536078
O           -6.64157651610882       -5.46476983882625       -1.00140059069813
C           -8.24953074348783       -4.89635614523091        2.18119735126947
H           -8.67890298945931       -6.14045811896889        0.50341417702194
C           -7.41231224699656       -3.95424039833000        2.76597409872447
H           -5.63787188492778       -2.80062245367127        2.47863044958909
H           -9.82206216669802       -5.96626529887530        2.34972544410622
