10
tb_lite_results_shiftn0p05.json_gp325_b0_rot180 Î”E=-7.639 kcal/mol
C -0.235003 -0.967745 1.530520
C -0.424933 -0.743367 -1.537969
Cl -1.884487 -1.227454 1.817193
H 0.424955 -1.806610 1.668230
Cl 0.402394 0.573375 1.829086
O -1.107907 0.171719 -1.477420
O 0.257695 -1.658823 -1.613869
O -1.674668 2.650436 1.179400
H -1.012968 1.988737 1.386374
H -2.479699 2.149851 1.046021
