10
tb_lite_results_shiftn0p05.json_gp208_b0_rot0 Î”E=-7.799 kcal/mol
C -0.235003 -0.967745 1.530520
C -0.424933 -0.743367 -1.537969
Cl -1.884487 -1.227454 1.817193
H 0.424955 -1.806610 1.668230
Cl 0.402394 0.573375 1.829086
O -1.107907 0.171719 -1.477420
O 0.257695 -1.658823 -1.613869
O -3.074878 1.265816 3.007585
H -2.695649 0.471523 2.628356
H -2.401178 1.934689 2.884344
