10
tb_lite_results_shiftn0p05.json_gp192_b0_rot0 Î”E=-7.899 kcal/mol
C -0.235003 -0.967745 1.530520
C -0.424933 -0.743367 -1.537969
Cl -1.884487 -1.227454 1.817193
H 0.424955 -1.806610 1.668230
Cl 0.402394 0.573375 1.829086
O -1.107907 0.171719 -1.477420
O 0.257695 -1.658823 -1.613869
O -2.534172 0.849608 3.894255
H -2.327199 0.187908 3.232555
H -1.945766 1.578215 3.695861
