11
 energy: -14.319332475862 gnorm: 0.000711590038 xtb: 6.7.1 (edcfbbe)
C           -3.71014558153422       -3.99987284771223       -2.65608568615418
C           -4.23668377072860       -2.61553541476601       -3.14456852413451
O           -3.28512625942411       -1.67815929661031       -3.24015407026062
H           -6.19661953990425       -2.98062119191582       -2.22778417107931
C           -5.42328040327888       -2.21578605144902       -2.21487420390074
H           -4.71284833194960       -2.81809564607799       -4.17456304590522
H           -5.83754472026359       -1.26917643042693       -2.55486045986083
H           -5.04725098937558       -2.08421461306557       -1.20236629039301
H           -3.31307242550313       -3.88916431251995       -1.64914069227774
H           -4.50836359155049       -4.73878272261424       -2.66180932086766
H           -2.90460651332418       -4.32469267051600       -3.31095895816486
