4
Coordinates from ORCA-job inp E -189.194903511982
  C      -3.147823      2.367648     -0.000010
  O      -3.351248      3.610852      0.000002
  O      -2.076288      1.705315     -0.000006
  H      -4.097286      1.732389     -0.000027
4
Coordinates from ORCA-job inp E -189.195213033940
  C      -3.154450      2.363196     -0.000010
  O      -3.342607      3.609421      0.000002
  O      -2.074409      1.713859     -0.000006
  H      -4.101180      1.729729     -0.000027
4
Coordinates from ORCA-job inp E -189.195302093483
  C      -3.160734      2.358934     -0.000010
  O      -3.335946      3.608591      0.000002
  O      -2.072662      1.720359     -0.000006
  H      -4.103304      1.728320     -0.000027
4
Coordinates from ORCA-job inp E -189.195302804895
  C      -3.160773      2.358886     -0.000010
  O      -3.336311      3.608858      0.000002
  O      -2.072523      1.719930     -0.000006
  H      -4.103039      1.728529     -0.000027
4
Coordinates from ORCA-job inp E -189.195302861763
  C      -3.160795      2.358851     -0.000010
  O      -3.336442      3.608949      0.000002
  O      -2.072464      1.719784     -0.000006
  H      -4.102944      1.728620     -0.000027
