6
Coordinates from ORCA-job inp E -244.379635902438
  N      -6.637576     -2.953975      3.328416
  C      -5.521338     -2.625639      2.514529
  H      -5.739588     -2.620117      1.462929
  O      -7.719825     -3.098383      2.753622
  H      -4.590453     -2.594577      3.049349
  O      -6.427343     -3.066934      4.538968
6
Coordinates from ORCA-job inp E -244.389847911660
  N      -6.611071     -2.966142      3.309544
  C      -5.521997     -2.631181      2.515184
  H      -5.726603     -2.612629      1.451301
  O      -7.748949     -3.097135      2.769833
  H      -4.575347     -2.586148      3.040197
  O      -6.452156     -3.066391      4.561755
6
Coordinates from ORCA-job inp E -244.391497625365
  N      -6.593836     -2.885942      3.295783
  C      -5.535829     -2.628968      2.525272
  H      -5.713389     -2.623091      1.452259
  O      -7.759488     -3.127850      2.776847
  H      -4.571721     -2.595624      3.027315
  O      -6.461860     -3.098150      4.570336
6
Coordinates from ORCA-job inp E -244.392536095929
  N      -6.569622     -2.972247      3.279680
  C      -5.540625     -2.663091      2.529359
  H      -5.706167     -2.597628      1.459131
  O      -7.772688     -3.093119      2.781145
  H      -4.576533     -2.568900      3.017818
  O      -6.470489     -3.064640      4.580680
6
Coordinates from ORCA-job inp E -244.393849730385
  N      -6.593124     -2.956404      3.296385
  C      -5.532019     -2.661963      2.523055
  H      -5.703234     -2.598800      1.454197
  O      -7.770895     -3.100472      2.777126
  H      -4.571050     -2.570398      3.016778
  O      -6.465800     -3.071587      4.580272
6
Coordinates from ORCA-job inp E -244.393986411397
  N      -6.592095     -2.947901      3.295451
  C      -5.535077     -2.668208      2.525379
  H      -5.701255     -2.597656      1.455490
  O      -7.770640     -3.102739      2.776880
  H      -4.571760     -2.569067      3.014579
  O      -6.465296     -3.074054      4.580034
6
Coordinates from ORCA-job inp E -244.394025222322
  N      -6.592526     -2.949917      3.295749
  C      -5.536397     -2.675533      2.526446
  H      -5.698291     -2.594298      1.456650
  O      -7.771254     -3.101401      2.777086
  H      -4.572099     -2.565684      3.011449
  O      -6.465556     -3.072793      4.580433
6
Coordinates from ORCA-job inp E -244.394041569709
  N      -6.594148     -2.951949      3.296918
  C      -5.537133     -2.681984      2.527062
  H      -5.694290     -2.590966      1.457362
  O      -7.772286     -3.100444      2.777931
  H      -4.571692     -2.562469      3.007463
  O      -6.466573     -3.071813      4.581076
6
Coordinates from ORCA-job inp E -244.394042134455
  N      -6.594529     -2.952080      3.297201
  C      -5.537150     -2.682063      2.527067
  H      -5.693538     -2.590764      1.457242
  O      -7.772553     -3.100528      2.778279
  H      -4.571354     -2.562320      3.006778
  O      -6.466999     -3.071868      4.581245
6
Coordinates from ORCA-job inp E -244.394042199314
  N      -6.594616     -2.952022      3.297269
  C      -5.537213     -2.681622      2.527103
  H      -5.693341     -2.590911      1.457173
  O      -7.772609     -3.100628      2.778377
  H      -4.571222     -2.562473      3.006606
  O      -6.467122     -3.071968      4.581285
