!OPT PBE def2-TZVP CPCM(water)

*xyz -1 1
C     -5.299237   -3.617381    0.491761
C     -6.457965   -4.171219    1.267062
O     -8.391744   -5.609645    1.209250
O     -6.661619   -3.899353    2.451791
O     -7.180117   -5.297882   -0.689678
C     -7.433284   -5.106343    0.544108
H     -4.668415   -3.019565    1.155661
H     -4.698458   -4.434953    0.085562
H     -5.665762   -2.978303   -0.315279
*
