15
tb_lite_results_shiftn0p15.json_gp242_b0_rot180 Î”E=-14.665 kcal/mol
C -3.066702 1.736946 -0.000011
C -3.042007 0.343465 0.000001
H 0.301275 2.318918 -0.000037
O -1.879430 3.821414 -0.000036
C -1.830294 -0.365637 -0.000001
H -3.988686 -0.206371 0.000012
C -0.635400 0.371537 -0.000015
H -1.817637 -1.456780 0.000007
C -0.643228 1.765249 -0.000027
H 0.323833 -0.156078 -0.000017
C -1.864091 2.530579 -0.000026
H -4.023899 2.268349 -0.000008
O -4.191094 5.080672 -0.000036
H -3.349466 4.622203 -0.000036
H -4.844422 4.380949 -0.000036
