4
 energy: -10.998302540057 gnorm: 0.000228869245 xtb: 6.7.1 (edcfbbe)
C           -3.13027321829736        2.37940937682685       -0.00000291227726
O           -3.33519262352455        3.59205440551439        0.00000703410601
O           -2.08754475188491        1.72732257301701       -0.00000189510490
H           -4.11958510311389        1.71748399824083       -0.00001542522411
