12
 energy: -23.800549420514 gnorm: 0.000237681754 xtb: 6.7.1 (edcfbbe)
C           -4.06380324734459       -1.94183997411026        1.92606033607542
C           -3.77420776558063       -2.42050188132041        0.67134073730876
Cl          -7.41055378761863       -3.92689303604572        2.81289078312669
C           -5.19891926678254       -2.37116913870584        2.66822639228148
H           -3.42654342534031       -1.20746217121577        2.40264213041678
C           -4.58723057704166       -3.36162906959123        0.05575025819107
H           -2.89511455652784       -2.05342119721052        0.15852460876259
C           -5.70827434102723       -3.81891507339488        0.72921246746126
H           -4.35676204891437       -3.73477898585457       -0.92920824944389
C           -5.99028625606527       -3.33454281641089        1.98402350601377
H           -6.36755729433102       -4.55094025085104        0.28649801830091
O           -5.47910093692204       -1.93306215434015        3.83596334687240
