12
tb_lite_results_shiftn0p25.json_gp363_b0_rot0 Î”E=-15.066 kcal/mol
C -4.071476 0.625003 0.092938
S -2.508699 1.615005 0.362586
H -4.105149 0.311276 -0.943701
H -4.046257 -0.225543 0.762365
H -4.908983 1.274378 0.322329
C -1.362438 0.404944 -0.083471
H -1.198009 -0.372644 0.639239
O -2.498368 2.668962 -0.648779
H -0.525819 0.710886 -0.683768
O -2.449950 -0.682569 -2.361261
H -2.070721 -0.303340 -1.566967
H -2.911324 0.045870 -2.777147
