8
 energy: -13.496617375269 gnorm: 0.000096851784 xtb: 6.7.1 (edcfbbe)
C           -3.81727602352819       -0.65674519420419       -0.68090457264166
C           -2.51270421150077        0.15974596377658       -0.86500926186150
N           -1.46936011360445       -0.45649992058944       -0.39123938557612
O           -2.59662160693680        1.27868155853006       -1.42737852550611
H           -4.53778303806412       -0.07322768173486       -0.10564867270327
H           -4.25577846318280       -0.87162800133284       -1.65670557166200
H           -3.60213128561545       -1.58878619712015       -0.16305000337487
H           -0.62962653584243        0.11804593982651       -0.53487660238847
