17
tb_lite_results_shiftn0p05.json_gp782_b0_rot0 Î”E=-14.318 kcal/mol
C -4.172182 -1.980183 1.997006
C -3.832282 -2.432666 0.719711
H -6.995103 -3.791794 2.510512
C -5.313376 -2.464031 2.653674
H -3.554637 -1.239940 2.508565
C -4.633010 -3.383165 0.077340
H -2.940578 -2.044449 0.222531
C -5.773191 -3.874870 0.721873
H -4.369647 -3.739278 -0.920679
C -6.107669 -3.416438 1.998590
H -6.402652 -4.617497 0.226565
C -5.682070 -1.962248 4.055206
O -4.897595 -1.119171 4.584707
O -6.740538 -2.429173 4.573527
O -7.330619 -0.542668 6.460032
H -7.123645 -1.204368 5.798333
H -6.742212 0.185939 6.261639
