11
tb_lite_results_shiftn0p2.json_gp416_b0_rot0 Î”E=-17.002 kcal/mol
C -3.102842 -2.934873 0.321020
C -4.569824 -3.390998 0.302059
9 -2.237697 -3.887160 -0.173739
9 -2.881529 -1.805516 -0.424958
9 -2.650660 -2.638106 1.581093
O -5.433600 -2.478108 0.777944
H -4.519705 -4.375624 0.860190
H -4.709364 -3.702010 -0.778334
O -7.701356 -2.478108 -0.457395
H -6.859728 -2.478108 0.001074
H -7.911236 -1.551108 -0.571725
