23
 energy: -33.970950477556 gnorm: 0.000899868788 xtb: 6.7.1 (edcfbbe)
C           -7.45454054939303       -3.53781848905151       -3.12010843837773
C           -8.24063642658413       -3.43683271567478       -4.26089884497668
N           -5.76814281051615       -0.31363588691571       -3.02559723525119
H           -6.05378568713202       -2.57419526321395       -1.82092050803214
C           -8.20001238670443       -2.25993954951927       -4.99490470919079
H           -8.86469208586905       -4.26047723801506       -4.57693228813802
C           -7.41934683575497       -1.20157036468592       -4.59398938307917
H           -8.78984048145575       -2.17024392019277       -5.90100393791890
C           -6.62814328154699       -1.26701927475111       -3.41988927681013
H           -7.38001673876707       -0.29652770218706       -5.19152646467384
C           -6.66543474560192       -2.49049758676421       -2.70996397521651
H           -7.46617266148762       -4.45364058171514       -2.54127245912698
C           -5.95097001255330        0.99890590839091       -3.23879689501064
C           -7.21542291201088        1.63789704473559       -3.29280487101936
H           -4.05714898564137        3.82990615792644       -3.41720638878727
H           -3.84271756676292        1.38859455935613       -3.21804290882647
C           -7.32691917702034        3.00409076409533       -3.39765164079177
H           -8.10663388528177        1.02262720948624       -3.22544549488042
C           -6.19942795027281        3.81162245927027       -3.45422588436592
H           -8.31306853025735        3.45411469166126       -3.43317552688509
C           -4.94767865012589        3.21353715410155       -3.38345435124925
H           -6.29520502280357        4.88434594230557       -3.54409789895804
C           -4.82046110977102        1.84975960220612       -3.27452050635977
