14
 energy: -30.140263412915 gnorm: 0.000553914796 xtb: 6.7.1 (edcfbbe)
C           -2.08431067080081       -2.83878746379710        1.55037292259295
C           -2.51517745863120       -2.18604158953435        0.41920665301669
C           -3.70625198329448       -2.52274002515808       -0.20033400802976
C           -4.46202692162119       -3.55720295541674        0.36773524052659
C           -4.05085122396808       -4.22918961483246        1.50473208343453
C           -2.82258297871578       -3.90589105441207        2.17161052240167
O           -2.42678016617011       -4.49623883538231        3.19991180022621
H           -1.14789546967509       -2.55402338809242        2.01397796874686
H           -1.91125231110457       -1.38831222311374       -0.00096344834462
H           -4.05628777548942       -2.01982049127785       -1.08726096942980
N           -5.68278548393688       -3.91667901170450       -0.25065161729617
H           -4.66560163224198       -5.02038702278040        1.90804249964589
O           -6.03868365603523       -3.31265414769904       -1.26033072150706
O           -6.35940925518318       -4.81856883193605        0.23020196625725
