! OPT PBE D3BJ CPCM(water)

*xyz -1 1
C     -3.801663   -0.652693   -0.684697
C     -2.550937    0.179427   -0.798703
N     -1.456920   -0.538684   -0.582685
O     -2.581913    1.366965   -1.099866
H     -4.626442   -0.013127   -0.354521
H     -4.047386   -1.080342   -1.661177
H     -3.690616   -1.456248    0.050869
H     -0.665373    0.104176   -0.694118
*
