8
Coordinates from ORCA-job inp E -208.310147093091
  C      -3.801663     -0.652693     -0.684697
  C      -2.550937      0.179427     -0.798703
  N      -1.456920     -0.538684     -0.582685
  O      -2.581913      1.366965     -1.099866
  H      -4.626442     -0.013127     -0.354521
  H      -4.047386     -1.080342     -1.661177
  H      -3.690616     -1.456248      0.050869
  H      -0.665373      0.104176     -0.694118
8
Coordinates from ORCA-job inp E -208.316001440185
  C      -3.815190     -0.655391     -0.681147
  C      -2.526263      0.174898     -0.797611
  N      -1.418755     -0.544907     -0.561618
  O      -2.598918      1.393849     -1.112494
  H      -4.653503     -0.005991     -0.352020
  H      -4.078106     -1.086094     -1.669396
  H      -3.706023     -1.478760      0.049130
  H      -0.624490      0.111869     -0.699742
8
Coordinates from ORCA-job inp E -208.316701987073
  C      -3.817626     -0.653855     -0.676480
  C      -2.512005      0.169029     -0.786515
  N      -1.406004     -0.544332     -0.544461
  O      -2.606832      1.389518     -1.135224
  H      -4.655014     -0.003128     -0.345846
  H      -4.091713     -1.072500     -1.669871
  H      -3.711846     -1.496321      0.036191
  H      -0.620210      0.121062     -0.702693
8
Coordinates from ORCA-job inp E -208.316817970169
  C      -3.817632     -0.653618     -0.675702
  C      -2.500875      0.154430     -0.809043
  N      -1.398943     -0.539614     -0.525136
  O      -2.612009      1.378239     -1.161000
  H      -4.640713      0.002702     -0.324194
  H      -4.123351     -1.055448     -1.667232
  H      -3.706722     -1.513828      0.016045
  H      -0.621006      0.136612     -0.678636
8
Coordinates from ORCA-job inp E -208.316970895557
  C      -3.816911     -0.653272     -0.672216
  C      -2.500024      0.154385     -0.797035
  N      -1.398161     -0.533683     -0.509731
  O      -2.612066      1.365875     -1.189023
  H      -4.636515      0.000050     -0.309855
  H      -4.128123     -1.036297     -1.669303
  H      -3.707672     -1.527756      0.001178
  H      -0.621778      0.140172     -0.678913
8
Coordinates from ORCA-job inp E -208.317083838827
  C      -3.815434     -0.654151     -0.670516
  C      -2.501112      0.152194     -0.798931
  N      -1.399308     -0.524809     -0.488306
  O      -2.610666      1.350435     -1.225669
  H      -4.625918     -0.003664     -0.283828
  H      -4.143142     -1.011507     -1.671603
  H      -3.703212     -1.544377     -0.019252
  H      -0.622459      0.145354     -0.666794
8
Coordinates from ORCA-job inp E -208.317271469321
  C      -3.812244     -0.657145     -0.668715
  C      -2.502138      0.144856     -0.812593
  N      -1.402176     -0.504004     -0.440066
  O      -2.606173      1.315030     -1.306460
  H      -4.598747     -0.013881     -0.223554
  H      -4.183005     -0.955531     -1.673935
  H      -3.692723     -1.579342     -0.066115
  H      -0.624043      0.159492     -0.633459
8
Coordinates from ORCA-job inp E -208.317391524133
  C      -3.809724     -0.660658     -0.669083
  C      -2.500453      0.135333     -0.831580
  N      -1.405993     -0.482568     -0.393225
  O      -2.598878      1.278470     -1.385055
  H      -4.568836     -0.027553     -0.163729
  H      -4.226995     -0.899529     -1.671908
  H      -3.683368     -1.610813     -0.113737
  H      -0.627002      0.176792     -0.596581
8
Coordinates from ORCA-job inp E -208.317447455501
  C      -3.809381     -0.662487     -0.671726
  C      -2.498396      0.130326     -0.845955
  N      -1.409428     -0.473907     -0.372628
  O      -2.592551      1.263564     -1.421421
  H      -4.553782     -0.037107     -0.134078
  H      -4.251502     -0.874329     -1.669706
  H      -3.676439     -1.622260     -0.134618
  H      -0.629770      0.185675     -0.574766
8
Coordinates from ORCA-job inp E -208.317468543164
  C      -3.810223     -0.662535     -0.674028
  C      -2.496463      0.129377     -0.851273
  N      -1.411311     -0.472481     -0.365672
  O      -2.588828      1.260526     -1.433548
  H      -4.550274     -0.042549     -0.123587
  H      -4.261366     -0.867147     -1.669317
  H      -3.671323     -1.623628     -0.140381
  H      -0.631461      0.187911     -0.567092
8
Coordinates from ORCA-job inp E -208.317472631823
  C      -3.810902     -0.662081     -0.675165
  C      -2.496159      0.130064     -0.851581
  N      -1.412317     -0.472829     -0.364515
  O      -2.587203      1.260735     -1.435358
  H      -4.550897     -0.044709     -0.121595
  H      -4.263227     -0.866771     -1.669749
  H      -3.668468     -1.622202     -0.140638
  H      -0.632078      0.187266     -0.566298
8
Coordinates from ORCA-job inp E -208.317473397680
  C      -3.811228     -0.661751     -0.675586
  C      -2.496284      0.130414     -0.851244
  N      -1.412790     -0.472913     -0.364256
  O      -2.586531      1.260587     -1.435816
  H      -4.551309     -0.045452     -0.121007
  H      -4.263664     -0.866813     -1.669947
  H      -3.667106     -1.621442     -0.140785
  H      -0.632339      0.186844     -0.566256
8
Coordinates from ORCA-job inp E -208.317473494317
  C      -3.811318     -0.661628     -0.675668
  C      -2.496413      0.130439     -0.851168
  N      -1.412929     -0.472893     -0.364267
  O      -2.586384      1.260475     -1.435856
  H      -4.551342     -0.045494     -0.120897
  H      -4.263766     -0.866902     -1.669948
  H      -3.666692     -1.621259     -0.140914
  H      -0.632407      0.186735     -0.566180
