22
tb_lite_results_shiftn0p15.json_gp534_b0_rot270 Î”E=-15.732 kcal/mol
C -5.293691 -3.647018 0.484138
C -6.501170 -4.176720 1.253538
H -2.077826 -1.498287 2.261080
H -1.574204 -0.709010 0.749965
H -3.064046 -0.192890 1.570464
C -7.413461 -5.192939 0.522804
H -6.171211 -4.652233 2.193831
H -7.144832 -3.336096 1.569181
O -7.150072 -5.487230 -0.681743
O -8.379007 -5.655381 1.206902
C -4.468474 -2.631723 1.279459
C -3.251268 -2.096921 0.520693
H -5.114689 -1.783220 1.570379
H -4.131257 -3.092599 2.225937
C -2.446295 -1.068590 1.316241
H -2.598731 -2.942921 0.242623
H -3.587671 -1.647371 -0.429896
H -4.648594 -4.491842 0.187454
H -5.632555 -3.184453 -0.458165
O -9.898823 -7.175197 -0.312914
H -9.345490 -6.621864 0.240418
H -9.501606 -7.117285 -1.182003
