18
tb_lite_results_shiftn0p1.json_gp513_b0_rot180 Î”E=-14.359 kcal/mol
C -5.276342 -6.512640 2.951134
C -5.098087 -5.245192 3.523864
C -2.935989 -6.290081 -0.079655
H -4.689169 -7.804517 1.323737
C -4.232499 -4.319570 2.942803
H -5.641373 -4.976441 4.435620
C -3.480913 -4.594110 1.747245
H -4.099138 -3.331991 3.397283
C -3.684350 -5.913053 1.174988
O -2.682037 -3.720536 1.225881
C -4.560248 -6.816899 1.782625
H -5.951816 -7.244154 3.398967
H -2.290959 -5.455645 -0.386675
H -2.300132 -7.178690 0.067974
H -3.616379 -6.522717 -0.915701
O -1.133354 -2.171853 2.774565
H -1.686686 -2.725185 2.221232
H -1.530571 -2.229764 3.643653
